geometry optimzed in LAMMPS
_audit_creation_date              2020-11-30 
_audit_creation_method            'lammps2cif' 
_symmetry_space_group_name_H-M    'P1' 
_symmetry_Int_Tables_number       1 
_symmetry_cell_setting            triclinic 
loop_ 
_symmetry_equiv_pos_as_xyz 
  x,y,z 
_cell_length_a                    41.875557624643896 
_cell_length_b                    44.49937720016494 
_cell_length_c                    42.83437646981389 
_cell_angle_alpha                 94.02007632252916 
_cell_angle_beta                  89.17222119609728 
_cell_angle_gamma                 90.85536396957887 
loop_ 
_atom_site_label 
_atom_site_type_symbol 
_atom_site_fract_x 
_atom_site_fract_y 
_atom_site_fract_z 
_atom_site_charge 
C1          C  0.34990739  0.38475012  0.36499653    -0.02720
C2          C  0.13146933  0.13863103  0.08329084    -0.02720
C3          C  0.05977193  0.40782035  0.42421865     0.42230
N4          N  0.03809043  0.45212404  0.42829165     0.01120
C5          C  0.01989241  0.03126689  0.07084948    -0.06760
H6          H  0.44784861  0.44104151  0.06346793     0.06610
C7          C  0.38616984  0.49778135  0.47662017    -0.07110
Co8        Co  0.04077159  0.47310800  0.49464908     0.74180
N9          N  0.48143286  0.45774096  0.02994045    -0.26290
Co10       Co  0.46930589  0.50256430  0.02518270     0.74070
C11         C  0.37583958  0.48382676  0.50552449     0.42330
N12         N  0.45377668  0.49514009  0.41406070     0.00740
N13         N  0.42684325  0.48982378  0.00465598     0.00480
N14         N  0.06498837  0.01122919  0.04950714    -0.47130
H15         H  0.06032006  0.40563081  0.47702244     0.06600
N16         N  0.00850386  0.44673197  0.01761770     0.01130
N17         N  0.45687089  0.04820636  0.01940655     0.00870
C18         C  0.43841402  0.09347778  0.02405825     0.42470
N19         N  0.48130725  0.48481562  0.40272164    -0.25740
C20         C  0.10682894  0.00062151  0.46893308    -0.06660
N21         N  0.05127893  0.43176272  0.40776350    -0.46850
N22         N  0.44722083  0.06980046  0.04050818    -0.47070
C23         C  0.11608084  0.01666870  0.44079038     0.42240
N24         N  0.03977770  0.00244653  0.03333119     0.01110
N25         N  0.51065595  0.04224008  0.41762907    -0.25760
N26         N  0.04038526  0.44349443  0.45685758    -0.26260
N27         N  0.48324363  0.05282667  0.42874261     0.00750
H28         H  0.54643831  0.05996786  0.38704962     0.06640
H29         H  0.43316138  0.09491490  0.47110283     0.06680
N30         N  0.01302572  0.01403183  0.04507640    -0.26310
N31         N  0.41841082  0.50021050  0.47802019    -0.25920
N32         N  0.06481082  0.01248487  0.44493148     0.01120
C33         C  0.99109955  0.41230693  0.04629151     0.42520
C34         C  0.47664263  0.47025736  0.37486673    -0.07170
N35         N  0.45220013  0.05612424  0.49059766    -0.25920
H36         H  0.37154935  0.50769130  0.45956509     0.06660
N37         N  0.01501587  0.41989702  0.02697434    -0.47140
H38         H  0.49542568  0.46181775  0.35923648     0.06650
C39         C  0.50175138  0.08776634  0.40107152     0.42350
C40         C  0.05200016  0.41593371  0.45654256    -0.06670
Co41       Co  0.02389300  0.99781081  0.42310288     0.73820
N42         N  0.42999718  0.48820597  0.39509934    -0.46860
C43         C  0.05462952  0.03048579  0.07281941     0.42620
N44         N  0.08818128  0.02382968  0.42848103    -0.46850
Co45       Co  0.45162352  0.02591356  0.45254274     0.73890
C46         C  0.44182217  0.08416367  0.49116258    -0.07170
C47         C  0.46845023  0.43738821  0.04823909    -0.06740
N48         N  0.07445123  0.99938981  0.46966916    -0.26260
N49         N  0.40261784  0.48016847  0.02129316    -0.47030
H50         H  0.50270170  0.04394934  0.08542011     0.06620
C51         C  0.52437317  0.06290243  0.40021670    -0.07150
Cl52       Cl  0.49636012  0.99994012  0.47390200    -0.50150
C53         C  0.44246979  0.47244840  0.36985224     0.42380
H54         H  0.12207642  0.98829956  0.48352936     0.06590
N55         N  0.47683954  0.07973624  0.41913585    -0.46860
C56         C  0.19977794  0.16406627  0.48904818     0.42230
N57         N  0.22292418  0.20386783  0.51028472     0.01120
C58         C  0.19993072  0.33538439  0.43766291    -0.06760
H59         H  0.21833840  0.25613985  0.36719422     0.06610
C60         C  0.31762982  0.21902790  0.41326843    -0.07110
Co61       Co  0.19564046  0.25891829  0.48422499     0.74180
N62         N  0.21424331  0.25549988  0.41715586    -0.26290
Co63       Co  0.24973571  0.28416704  0.43379036     0.74070
C64         C  0.29938961  0.21692162  0.38381984     0.42330
N65         N  0.31500231  0.21398034  0.49068982     0.00740
N66         N  0.28373011  0.25499474  0.41407509     0.00840
N67         N  0.16517927  0.31758960  0.47266518    -0.47130
H68         H  0.16652023  0.19278661  0.46148054     0.06600
N69         N  0.19178300  0.24620271  0.43610841     0.01130
N70         N  0.28418689  0.31219740  0.45293495     0.00870
C71         C  0.30746271  0.35432518  0.46701619     0.42470
N72         N  0.29414068  0.20410660  0.51109445    -0.25740
C73         C  0.19031192  0.29859080  0.04713699    -0.06660
N74         N  0.22307625  0.17406980  0.50895578    -0.46850
N75         N  0.28201383  0.34135104  0.45258627    -0.47070
C76         C  0.20829377  0.30236093  0.07651432     0.42240
N77         N  0.19246977  0.30293410  0.47235071     0.01110
N78         N  0.29445007  0.26167103  0.04498627    -0.25760
N79         N  0.20047422  0.21427852  0.49294010    -0.26260
N80         N  0.31686959  0.27147926  0.02609857     0.00750
H81         H  0.29001308  0.26102129  0.09488471     0.06640
H82         H  0.34794938  0.32977938  0.49069877     0.06680
N83         N  0.21314883  0.31251162  0.45167093    -0.26310
N84         N  0.30636476  0.24340703  0.43046743    -0.25920
N85         N  0.22469487  0.26304156  0.04823450     0.01120
C86         C  0.17524894  0.23353388  0.38972958     0.42520
C87         C  0.30609018  0.17945569  0.52305896    -0.07170
N88         N  0.30942114  0.30380157  0.46789914    -0.25920
H89         H  0.33430990  0.20310073  0.42143126     0.06660
N90         N  0.16705053  0.23397937  0.42051650    -0.47140
H91         H  0.29626398  0.16888818  0.54312267     0.06650
C92         C  0.33286996  0.28421235  0.07272085     0.42350
C93         C  0.18542511  0.19107575  0.47811837    -0.06670
Co94       Co  0.25855082  0.23275703  0.02904167     0.73820
N95         N  0.34118753  0.19764470  0.48860283    -0.46860
C96         C  0.16782785  0.33855048  0.45150391     0.42620
N97         N  0.22904758  0.27938596  0.07497623    -0.46850
Co98       Co  0.31295426  0.25841832  0.47817689     0.73890
C99         C  0.32642373  0.32903395  0.47701230    -0.07170
C100        C  0.20610553  0.24841537  0.38759385    -0.06740
N101        N  0.20228102  0.27399388  0.03110067    -0.26260
N102        N  0.27903330  0.23999282  0.38674671    -0.47030
H103        H  0.20890942  0.34432184  0.41636016     0.06620
C104        C  0.30228034  0.26890246  0.07458433    -0.07150
Cl105      Cl  0.25417808  0.25851862  0.48153678    -0.50150
C106        C  0.33775615  0.17536253  0.50829132     0.42380
H107        H  0.17361679  0.31388284  0.03789542     0.06590
N108        N  0.34120040  0.28424215  0.04194666    -0.46860
C109        C  0.10274438  0.24248423  0.27857311     0.42230
N110        N  0.06460599  0.23387129  0.24627052     0.01120
C111        C  0.47672462  0.33983545  0.17652951    -0.06760
H112        H  0.00655775  0.38190067  0.27258399     0.06610
C113        C  0.43905604  0.27162394  0.31923481    -0.07110
Co114      Co  0.04688412  0.28882069  0.21424723     0.74180
N115        N  0.01957148  0.33645766  0.25821903    -0.26290
Co116      Co  0.47569391  0.31531143  0.24312652     0.74070
C117        C  0.43882146  0.30185475  0.33356046     0.42330
N118        N  0.48039549  0.21378933  0.28365105     0.00740
N119        N  0.46058409  0.30249099  0.28764622     0.00840
N120        N  0.02388443  0.32143416  0.15796725    -0.47130
H121        H  0.10807634  0.29178743  0.26583000     0.06600
N122        N  0.04691612  0.32487585  0.24789545     0.01130
N123        N  0.43408460  0.29535750  0.22438031     0.00870
C124        C  0.39724803  0.28553934  0.19042427     0.42470
N125        N  0.50785928  0.20393600  0.27192548    -0.25740
C126        C  0.05491289  0.25650414  0.14949224    -0.06660
N127        N  0.08155601  0.22151638  0.26765975    -0.46850
N128        N  0.41767959  0.30696873  0.20206612    -0.47070
C129        C  0.04991969  0.22632563  0.13525985     0.42240
N130        N  0.01815029  0.31413273  0.18697007     0.01110
N131        N  0.47996133  0.19391995  0.21139553    -0.25760
N132        N  0.07311518  0.26216100  0.24262083    -0.26260
N133        N  0.45261217  0.20500204  0.22191685     0.00750
H134        H  0.49316038  0.15010171  0.19196454     0.06640
H135        H  0.39285165  0.23637384  0.20367924     0.06680
N136        N  0.49071400  0.32451002  0.19829183    -0.26310
N137        N  0.45203112  0.27418067  0.29104053    -0.25920
N138        N  0.03666338  0.22703256  0.18388836     0.01120
C139        C  0.05979484  0.37175493  0.26083906     0.42520
C140        C  0.02041956  0.18482585  0.29101469    -0.07170
N141        N  0.42606975  0.26696231  0.22796314    -0.25920
H142        H  0.42773523  0.25147897  0.32719308     0.06660
N143        N  0.07077907  0.34482760  0.24917303    -0.47140
H144        H  0.04177957  0.17180095  0.28637795     0.06650
C145        C  0.43969863  0.15965342  0.20368106     0.42350
C146        C  0.09721897  0.26964419  0.26216113    -0.06670
Co147      Co  0.02292273  0.21441314  0.22772253     0.73820
N148        N  0.47266829  0.20169045  0.31028914    -0.46860
C149        C  0.99833109  0.33697719  0.14952228     0.42620
N150        N  0.03864064  0.20928225  0.15807975    -0.46850
Co151      Co  0.45223213  0.24022428  0.25630484     0.73890
C152        C  0.40279753  0.25885311  0.20767415    -0.07170
C153        C  0.02525813  0.36588510  0.26718115    -0.06740
N154        N  0.04639239  0.25469398  0.17947929    -0.26260
N155        N  0.45219348  0.32007162  0.31257807    -0.47030
H156        H  0.45425517  0.35143355  0.17927345     0.06620
C157        C  0.47440075  0.16554885  0.19905810    -0.07150
Cl158      Cl  0.49949830  0.26486679  0.23574860    -0.50150
C159        C  0.49718564  0.18364030  0.31670585     0.42380
H160        H  0.06372404  0.27656206  0.13922610     0.06590
N161        N  0.42857872  0.18554860  0.21792956    -0.46860
C162        C  0.20077464  0.50619781  0.33560839     0.42230
N163        N  0.23602310  0.51276055  0.29976775     0.01120
C164        C  0.21412041  0.07367210  0.15908668    -0.06760
H165        H  0.15932755  0.45763146  0.17892494     0.06610
C166        C  0.26299973  0.42287077  0.16997510    -0.07110
Co167      Co  0.20722313  0.04501024  0.24868975     0.74180
N168        N  0.18029624  0.49776711  0.20212137    -0.26290
Co169      Co  0.22119365  0.50711706  0.17484591     0.74070
C170        C  0.23356214  0.41472483  0.15283986     0.42330
N171        N  0.29327619  0.46102658  0.23998080     0.00740
N172        N  0.23213410  0.46139489  0.17018484     0.00840
N173        N  0.20330390  0.09664808  0.20652969    -0.47130
H174        H  0.16171131  0.52772035  0.30790082     0.06600
N175        N  0.17463527  0.51204504  0.22969826     0.01130
N176        N  0.26297454  0.01436670  0.14816493     0.00870
C177        C  0.29556600  0.01393573  0.10853072     0.42470
N178        N  0.28635240  0.47482436  0.26744308    -0.25740
C179        C  0.23854759  0.10533555  0.28084297    -0.06660
N180        N  0.23228296  0.50315836  0.32841056    -0.46850
N181        N  0.26468857  0.01816669  0.11762697    -0.47070
C182        C  0.26769268  0.11183546  0.29927035     0.42240
N183        N  0.20728469  0.06735944  0.20806719     0.01110
N184        N  0.31955836  0.02974661  0.24795518    -0.25760
N185        N  0.20914404  0.52268210  0.28891880    -0.26260
N186        N  0.32517541  0.01707361  0.21962912     0.00750
H187        H  0.34109847  0.06760350  0.27436230     0.06640
H188        H  0.33613280  0.99669405  0.13749094     0.06680
N189        N  0.21298237  0.05322382  0.18048732    -0.26310
N190        N  0.26008359  0.45228560  0.17947434    -0.25920
N191        N  0.26827814  0.06601147  0.27940172     0.01120
C192        C  0.13956197  0.47539053  0.22687164     0.42520
C193        C  0.28116343  0.45422061  0.28794835    -0.07170
N194        N  0.29061853  0.00630241  0.15910699    -0.25920
H195        H  0.28408702  0.40954622  0.17245780     0.06660
N196        N  0.15103584  0.49901175  0.24533955    -0.47140
H197        H  0.27385288  0.45891688  0.31204964     0.06650
C198        C  0.36031417  0.05324243  0.22527426     0.42350
C199        C  0.18579664  0.51964654  0.30979112    -0.06670
Co200      Co  0.27843145  0.02038214  0.27410309     0.73820
N201        N  0.29359746  0.43129797  0.24069753    -0.46860
C202        C  0.20742752  0.10246817  0.17627666     0.42620
N203        N  0.28451449  0.08621682  0.29717540    -0.46850
Co204      Co  0.29328479  0.48406327  0.19981634     0.73890
C205        C  0.31261669  0.00625480  0.13626754    -0.07170
C206        C  0.15924495  0.47460413  0.19824649    -0.06740
N207        N  0.24094206  0.07621420  0.26971559    -0.26260
N208        N  0.21591815  0.43994855  0.15392293    -0.47030
H209        H  0.21853844  0.06890242  0.13431630     0.06620
C210        C  0.34092706  0.05213998  0.25375747    -0.07150
Cl211      Cl  0.25008114  0.51426131  0.22436444    -0.50150
C212        C  0.28519918  0.42543119  0.27013780     0.42380
H213        H  0.21771076  0.11916471  0.27911278     0.06590
N214        N  0.34895297  0.03088515  0.20505073    -0.46860
C215        C  0.41238864  0.07606062  0.20819989    -0.20530
C216        C  0.37997217  0.07973346  0.21618351    -0.07100
C217        C  0.36711723  0.10898919  0.21662584     0.13770
C218        C  0.38714457  0.13367449  0.21056757    -0.20590
C219        C  0.42022828  0.13067753  0.20460092    -0.07100
C220        C  0.43274152  0.10097746  0.20266544     0.13760
C221        C  0.46740718  0.09493317  0.19567618    -0.23940
H222        H  0.42214425  0.05359192  0.20746691     0.15050
H223        H  0.37675957  0.15588260  0.21143011     0.15070
C224        C  0.33209086  0.11450689  0.22314222    -0.23880
H225        H  0.47257410  0.07045998  0.19445251     0.05290
H226        H  0.48229031  0.10587039  0.21456801     0.08510
H227        H  0.47410625  0.10329983  0.17263853     0.08510
H228        H  0.32589534  0.10995859  0.24760481     0.08500
H229        H  0.31740732  0.09979680  0.20680377     0.08500
H230        H  0.32568358  0.13824665  0.22008841     0.05270
C231        C  0.11255527  0.39838525  0.25432264    -0.20530
C232        C  0.07890946  0.40057449  0.25595404    -0.07100
C233        C  0.06564332  0.42877614  0.24947376     0.13770
C234        C  0.08593811  0.45290267  0.24097907    -0.20590
C235        C  0.11927303  0.44996473  0.23827028    -0.07100
C236        C  0.13264333  0.42236402  0.24561953     0.13760
C237        C  0.16830647  0.41810809  0.24443061    -0.23940
H238        H  0.12338417  0.37730748  0.25930925     0.15050
H239        H  0.07558124  0.47407107  0.23557080     0.15070
C240        C  0.03021367  0.43373358  0.25035697    -0.23880
H241        H  0.17500152  0.39563844  0.25181935     0.05290
H242        H  0.18010006  0.43552778  0.26034219     0.08510
H243        H  0.17749850  0.42000197  0.22021401     0.08510
H244        H  0.02088744  0.43152775  0.27445863     0.08500
H245        H  0.01823450  0.41727844  0.23354262     0.08500
H246        H  0.02416008  0.45664885  0.24375770     0.05270
C247        C  0.20537386  0.35865323  0.08615782    -0.20530
C248        C  0.21316919  0.33073836  0.09734982    -0.07100
C249        C  0.22721827  0.33081699  0.12739805     0.13770
C250        C  0.23362826  0.35841045  0.14473210    -0.20590
C251        C  0.22597136  0.38621518  0.13338341    -0.07100
C252        C  0.21155918  0.38618907  0.10358595     0.13760
C253        C  0.20382637  0.41514168  0.08920970    -0.23940
H254        H  0.19507009  0.35913791  0.06317449     0.15050
H255        H  0.24448489  0.35825746  0.16753826     0.15070
C256        C  0.23498921  0.30194078  0.14185017    -0.23880
H257        H  0.19468247  0.41100694  0.06505428     0.05290
H258        H  0.22566843  0.42951445  0.08802219     0.08510
H259        H  0.18506485  0.42734375  0.10331541     0.08510
H260        H  0.25435461  0.29013814  0.12834109     0.08500
H261        H  0.21337686  0.28720692  0.14231854     0.08500
H262        H  0.24336598  0.30614063  0.16627517     0.05270
C263        C  0.27295629  0.16759613  0.31119203    -0.20530
C264        C  0.27573870  0.13846974  0.32129052    -0.07100
C265        C  0.28725170  0.13525716  0.35193049     0.13770
C266        C  0.29587741  0.16102029  0.37127759    -0.20590
C267        C  0.29324557  0.19020223  0.36117430    -0.07100
C268        C  0.28170623  0.19337923  0.33049933     0.13760
C269        C  0.27925826  0.22387211  0.31748255    -0.23940
H270        H  0.26434842  0.17017804  0.28780131     0.15050
H271        H  0.30391394  0.15831534  0.39482883     0.15070
C272        C  0.28926832  0.10478756  0.36507264    -0.23880
H273        H  0.27226340  0.22197968  0.29250076     0.05290
H274        H  0.30270808  0.23581651  0.31913112     0.08510
H275        H  0.26086164  0.23749724  0.33051338     0.08510
H276        H  0.30750516  0.09095494  0.35199237     0.08500
H277        H  0.26564567  0.09312881  0.36350627     0.08500
H278        H  0.29626342  0.10664833  0.39005641     0.05270
C279        C  0.12775630  0.25177127  0.36356420    -0.20530
C280        C  0.15306698  0.23148353  0.36333470    -0.07100
C281        C  0.16081211  0.21402428  0.33552639     0.13770
C282        C  0.14379149  0.21806464  0.30822040    -0.20590
C283        C  0.11990227  0.23972532  0.30793875    -0.07100
C284        C  0.11102634  0.25616113  0.33609801     0.13760
C285        C  0.08382855  0.27804502  0.33736314    -0.23940
H286        H  0.12214258  0.26530607  0.38486077     0.15050
H287        H  0.14962688  0.20474613  0.28678882     0.15070
C288        C  0.18715316  0.19121893  0.33464202    -0.23880
H289        H  0.07946032  0.28807341  0.36150715     0.05290
H290        H  0.06157489  0.26625132  0.32925349     0.08510
H291        H  0.08937151  0.29672874  0.32224106     0.08510
H292        H  0.18200045  0.17446167  0.35213233     0.08500
H293        H  0.21036554  0.20254858  0.34007030     0.08500
H294        H  0.18950218  0.17894163  0.31125523     0.05270
C295        C  0.35488454  0.31232108  0.11934155    -0.20530
C296        C  0.35490365  0.28609627  0.09927907    -0.07100
C297        C  0.36947946  0.25990559  0.10888933     0.13770
C298        C  0.38319872  0.26043040  0.13862729    -0.20590
C299        C  0.38248944  0.28643716  0.15919248    -0.07100
C300        C  0.36864477  0.31291962  0.14914638     0.13760
C301        C  0.36695470  0.34147385  0.17019427    -0.23940
H302        H  0.34277939  0.33203100  0.11218480     0.15050
H303        H  0.39435695  0.24028522  0.14586934     0.15070
C304        C  0.36982188  0.23112007  0.08808755    -0.23880
H305        H  0.35381689  0.35937230  0.15914965     0.05290
H306        H  0.39135008  0.35032685  0.17532872     0.08510
H307        H  0.35440832  0.33692775  0.19241439     0.08510
H308        H  0.38192009  0.23531528  0.06559166     0.08500
H309        H  0.34507296  0.22291311  0.08344945     0.08500
H310        H  0.38276909  0.21296701  0.09890788     0.05270
C311        C  0.42172115  0.14579001  0.52184642    -0.20530
C312        C  0.41508922  0.11740768  0.03307351    -0.07100
C313        C  0.38285140  0.11023580  0.54033588     0.13770
C314        C  0.35822803  0.13014481  0.53360483    -0.20590
C315        C  0.36485936  0.15697555  0.51891054    -0.07100
C316        C  0.39743413  0.16545703  0.51444554     0.13760
C317        C  0.40737399  0.19463011  0.50091392    -0.23940
H318        H  0.44668109  0.15109758  0.01623880     0.15050
H319        H  0.33360304  0.12375358  0.53805984     0.15070
C320        C  0.37470339  0.08060068  0.05352977    -0.23880
H321        H  0.43369454  0.19808840  0.50113898     0.05290
H322        H  0.39664927  0.21396336  0.51485031     0.08510
H323        H  0.39990207  0.19449194  0.47615931     0.08510
H324        H  0.38788390  0.07847041  0.07554877     0.08500
H325        H  0.38096625  0.06170344  0.53631133     0.08500
H326        H  0.34887340  0.07891084  0.55903940     0.05270
C327        C  0.14491079  0.38199607  0.42637236    -0.20530
C328        C  0.14003745  0.35364874  0.43803021    -0.07100
C329        C  0.10875788  0.34076750  0.43686217     0.13770
C330        C  0.08317074  0.35766164  0.42664217    -0.20590
C331        C  0.08751168  0.38744451  0.41841696    -0.07100
C332        C  0.11904034  0.39916676  0.41743769     0.13760
C333        C  0.12514573  0.43076356  0.40944170    -0.23940
H334        H  0.16879880  0.39173851  0.42649776     0.15050
H335        H  0.05904336  0.34863519  0.42810097     0.15070
C336        C  0.10168895  0.30958030  0.44701058    -0.23880
H337        H  0.15106029  0.43643520  0.40863329     0.05290
H338        H  0.11347414  0.44646228  0.42719100     0.08510
H339        H  0.11491958  0.43342593  0.38617006     0.08510
H340        H  0.10661708  0.30929241  0.97191863     0.08500
H341        H  0.11765758  0.29309669  0.43429455     0.08500
H342        H  0.07664528  0.30239659  0.44206170     0.05270
C343        C  0.13155357  0.99388434  0.38878699    -0.20530
C344        C  0.14172217  0.00794444  0.41748842    -0.07100
C345        C  0.17408506  0.01687654  0.42043396     0.13770
C346        C  0.19485146  0.01313656  0.39401344    -0.20590
C347        C  0.18367764  0.50044335  0.36511387    -0.07100
C348        C  0.15215508  0.98886414  0.36322034     0.13760
C349        C  0.13893126  0.97229825  0.33398612    -0.23940
H350        H  0.10679404  0.98681518  0.38601071     0.15050
H351        H  0.21894339  0.52228499  0.39543032     0.15070
C352        C  0.18596745  0.03212864  0.45055755    -0.23880
H353        H  0.12839077  0.95033113  0.33959801     0.05290
H354        H  0.15747078  0.46714005  0.31579891     0.08510
H355        H  0.12000746  0.98588337  0.32407534     0.08510
H356        H  0.18253976  0.01682294  0.46975093     0.08500
H357        H  0.17247296  0.05313037  0.45635001     0.08500
H358        H  0.21175443  0.03809265  0.44892230     0.05270
C359        C  0.31906673  0.47429633  0.07242532    -0.20530
C360        C  0.30617311  0.00317052  0.07642229    -0.07100
C361        C  0.30832839  0.52223761  0.05151508     0.13770
C362        C  0.32851632  0.51412472  0.02555267    -0.20590
C363        C  0.34528779  0.48679812  0.02384310    -0.07100
C364        C  0.33818939  0.46569719  0.04630193     0.13760
C365        C  0.35192073  0.43441513  0.04359084    -0.23940
H366        H  0.31584291  0.45893246  0.09081804     0.15050
H367        H  0.33309645  0.53012670  0.00803924     0.15070
C368        C  0.29049919  0.05134700  0.05296903    -0.23880
H369        H  0.34244515  0.42047595  0.06225187     0.05290
H370        H  0.37827171  0.43521738  0.04565631     0.08510
H371        H  0.34538930  0.42297108  0.02069163     0.08510
H372        H  0.29721631  0.06571362  0.07415284     0.08500
H373        H  0.26431952  0.54639877  0.05422209     0.08500
H374        H  0.29520351  0.56408346  0.03199299     0.05270
C375        C  0.02441254  0.36464804  0.10820754    -0.20530
C376        C  0.99625035  0.35223057  0.12013461    -0.07100
C377        C  0.46698336  0.35641924  0.10499884     0.13770
C378        C  0.46613948  0.37588812  0.08068773    -0.20590
C379        C  0.99416380  0.38979086  0.06982629    -0.07100
C380        C  0.02390732  0.38328620  0.08319810     0.13760
C381        C  0.05512458  0.39696354  0.07271260    -0.23940
H382        H  0.04687942  0.36084709  0.11946636     0.15050
H383        H  0.44351416  0.38003856  0.06986839     0.15070
C384        C  0.43646704  0.34011691  0.11290993    -0.23880
H385        H  0.07551925  0.39010562  0.08678349     0.05290
H386        H  0.05396451  0.42192898  0.07535344     0.08510
H387        H  0.06031992  0.38933581  0.04796093     0.08510
H388        H  0.41863257  0.35663136  0.12246883     0.08500
H389        H  0.43981978  0.32275796  0.12980324     0.08500
H390        H  0.42676571  0.32821522  0.09135331     0.05270
C391        C  0.49296499  0.14149132  0.39114462    -0.20530
C392        C  0.49997173  0.11204529  0.37914673    -0.07100
C393        C  0.50300300  0.10604688  0.34634628     0.13770
C394        C  0.50124570  0.12989065  0.32674573    -0.20590
C395        C  0.49569803  0.15949460  0.33878076    -0.07100
C396        C  0.49081098  0.16533838  0.37128635     0.13760
C397        C  0.48436215  0.19676502  0.38503520    -0.23940
H398        H  0.48965586  0.14591037  0.41618056     0.15050
H399        H  0.00439365  0.12532636  0.30173619     0.15070
C400        C  0.00682718  0.07449377  0.33159443    -0.23880
H401        H  0.48165564  0.19752605  0.41090932     0.05290
H402        H  0.46196198  0.20506710  0.37532458     0.08510
H403        H  0.50447455  0.21203125  0.37922727     0.08510
H404        H  0.48734399  0.05965459  0.33995751     0.08500
H405        H  0.03040732  0.06548753  0.33718120     0.08500
H406        H  0.00540800  0.07386910  0.30568150     0.05270
C407        C  0.13980307  0.13901882  0.14167453    -0.20530
C408        C  0.15387435  0.14305525  0.11205098    -0.07100
C409        C  0.18746734  0.14937094  0.11173428     0.13770
C410        C  0.20580135  0.13880322  0.13574632    -0.20590
C411        C  0.19102366  0.12660972  0.16160745    -0.07100
C412        C  0.15799621  0.13069287  0.16660988     0.13760
C413        C  0.14106526  0.12243097  0.19618443    -0.23940
H414        H  0.11419754  0.13874217  0.14441817     0.15050
H415        H  0.23161337  0.13847785  0.13340275     0.15070
C416        C  0.20505260  0.16743185  0.08821010    -0.23880
H417        H  0.11534537  0.12818110  0.19613641     0.05290
H418        H  0.15203181  0.13501536  0.21671037     0.08510
H419        H  0.14253646  0.09782858  0.19862903     0.08510
H420        H  0.18932356  0.17749178  0.07146598     0.08500
H421        H  0.22305511  0.15320841  0.07518468     0.08500
H422        H  0.21784352  0.18655419  0.10082610     0.05270
C423        C  0.11780599  0.19356720  0.09124175    -0.20530
C424        C  0.10623469  0.16352180  0.09005418    -0.07100
C425        C  0.07288512  0.15906645  0.09749258     0.13770
C426        C  0.05296231  0.18381217  0.09867753    -0.20590
C427        C  0.06589860  0.21197374  0.10760703    -0.07100
C428        C  0.09842289  0.21780241  0.10105226     0.13760
C429        C  0.11344724  0.24873299  0.10565670    -0.23940
H430        H  0.14270202  0.19796470  0.08625296     0.15050
H431        H  0.02759240  0.18012212  0.10295024     0.15070
C432        C  0.05725241  0.13193834  0.11143241    -0.23880
H433        H  0.13818282  0.24922601  0.09594842     0.05290
H434        H  0.11502928  0.25573790  0.13093612     0.08510
H435        H  0.09931337  0.26510577  0.09339364     0.08510
H436        H  0.07370906  0.11520659  0.11940465     0.08500
H437        H  0.03962122  0.12119682  0.09492550     0.08500
H438        H  0.04394946  0.13941752  0.13319285     0.05270
C439        C  0.14840605  0.14278844  0.99417679    -0.20530
C440        C  0.18083749  0.13650017  0.49383603    -0.07100
C441        C  0.19155716  0.11869070  0.51696193     0.13770
C442        C  0.17457611  0.11997792  0.04509176    -0.20590
C443        C  0.14834583  0.13975055  0.05080915    -0.07100
C444        C  0.13461626  0.15148277  0.02337041     0.13760
C445        C  0.10811371  0.17439581  0.02271467    -0.23940
H446        H  0.13808628  0.15048776  0.97314674     0.15050
H447        H  0.18312667  0.10669381  0.06317887     0.15070
C448        C  0.22206531  0.10143063  0.51256337    -0.23880
H449        H  0.10109707  0.17825766  0.99842846     0.05290
H450        H  0.11684497  0.19659122  0.03262461     0.08510
H451        H  0.08576941  0.16777299  0.03449396     0.08510
H452        H  0.24243571  0.11691708  0.50834814     0.08500
H453        H  0.21983500  0.08480885  0.49212827     0.08500
H454        H  0.22741402  0.08907215  0.53347313     0.05270
C455        C  0.09180790  0.10352264  0.05689092    -0.20530
C456        C  0.11563948  0.10694726  0.07983445    -0.07100
C457        C  0.12187120  0.08124070  0.09709749     0.13770
C458        C  0.09906361  0.05802122  0.09693451    -0.20590
C459        C  0.07304234  0.05780269  0.07714078    -0.07100
C460        C  0.07047348  0.07975065  0.05525156     0.13760
C461        C  0.04530402  0.07897406  0.03007955    -0.23940
H462        H  0.08767909  0.12088431  0.04152795     0.15050
H463        H  0.10284976  0.03875019  0.11058670     0.15070
C464        C  0.15253451  0.07442379  0.11280351    -0.23880
H465        H  0.04787589  0.09816442  0.01494094     0.05290
H466        H  0.52082180  0.08043020  0.04115480     0.08510
H467        H  0.04735459  0.05816161  0.01442925     0.08510
H468        H  0.14822033  0.07331971  0.13831032     0.08500
H469        H  0.17216176  0.09011258  0.10848079     0.08500
H470        H  0.16120627  0.05206378  0.10338072     0.05270
C471        C  0.40552462  0.40121580  0.34446904    -0.20530
C472        C  0.37404059  0.40899880  0.35430392    -0.07100
C473        C  0.36575448  0.44002828  0.35327068     0.13770
C474        C  0.39003751  0.46137613  0.34982560    -0.20590
C475        C  0.42195539  0.45296231  0.34974028    -0.07100
C476        C  0.42962118  0.42276364  0.34213817     0.13760
C477        C  0.46315501  0.41239281  0.33466793    -0.23940
H478        H  0.41284317  0.37831487  0.34064935     0.15050
H479        H  0.38446603  0.48516297  0.35257464     0.15070
C480        C  0.33237389  0.45199135  0.35755326    -0.23880
H481        H  0.46329551  0.38902237  0.32368414     0.05290
H482        H  0.47721597  0.41231204  0.35639294     0.08510
H483        H  0.47468188  0.42709910  0.31776742     0.08510
H484        H  0.32121599  0.44602094  0.37984317     0.08500
H485        H  0.33181935  0.47695758  0.35782642     0.08500
H486        H  0.31806191  0.44369832  0.33741486     0.05270
C487        C  0.30459214  0.39001943  0.40740599    -0.20530
C488        C  0.33661870  0.39552726  0.39849382    -0.07100
C489        C  0.35706162  0.40415914  0.42474917     0.13770
C490        C  0.34835261  0.39338873  0.45417357    -0.20590
C491        C  0.31629429  0.38545504  0.45939746    -0.07100
C492        C  0.29501556  0.39659463  0.43823534     0.13760
C493        C  0.26030190  0.40164823  0.44622298    -0.23940
H494        H  0.28846578  0.37568859  0.39357258     0.15050
H495        H  0.36577085  0.39162544  0.47236535     0.15070
C496        C  0.38470250  0.42639215  0.42378674    -0.23880
H497        H  0.25386058  0.42466542  0.44033572     0.05290
H498        H  0.25558464  0.39971711  0.47159116     0.08510
H499        H  0.24492894  0.38520079  0.43257117     0.08510
H500        H  0.37555456  0.44839681  0.41749253     0.08500
H501        H  0.40401114  0.41950312  0.40718383     0.08500
H502        H  0.39577645  0.43022655  0.44717057     0.05270
C503        C  0.29404573  0.39149932  0.33898790    -0.20530
C504        C  0.32628906  0.38179433  0.33621654    -0.07100
C505        C  0.33725612  0.37446732  0.30424996     0.13770
C506        C  0.31926538  0.38352827  0.27921955    -0.20590
C507        C  0.28989913  0.39705132  0.28458078    -0.07100
C508        C  0.27475290  0.39412127  0.31328016     0.13760
C509        C  0.23938341  0.39957384  0.31760497    -0.23940
H510        H  0.28442459  0.40362580  0.35920800     0.15050
H511        H  0.33002722  0.38349754  0.25601054     0.15070
C512        C  0.36859926  0.36058157  0.29376113    -0.23880
H513        H  0.23163535  0.39734082  0.34226223     0.05290
H514        H  0.22598674  0.38249504  0.30264641     0.08510
H515        H  0.23265292  0.42223346  0.31102420     0.08510
H516        H  0.38232903  0.35146618  0.31204909     0.08500
H517        H  0.38374264  0.37743565  0.28228985     0.08500
H518        H  0.36395894  0.34126980  0.27647273     0.05270
C519        C  0.39468176  0.35391893  0.38824207    -0.20530
C520        C  0.36609020  0.35401101  0.37075464    -0.07100
C521        C  0.35694472  0.32561313  0.35606957     0.13770
C522        C  0.38128138  0.30531772  0.34689342    -0.20590
C523        C  0.41315042  0.31230948  0.35490593    -0.07100
C524        C  0.41918995  0.33427115  0.37901371     0.13760
C525        C  0.45186835  0.33952256  0.39283112    -0.23940
H526        H  0.40128929  0.37187393  0.40456172     0.15050
H527        H  0.37576814  0.28604265  0.33090762     0.15070
C528        C  0.32298898  0.31655013  0.34875983    -0.23880
H529        H  0.46097377  0.36221280  0.38757825     0.05290
H530        H  0.46929591  0.32247811  0.38354714     0.08510
H531        H  0.45027715  0.33828562  0.41860195     0.08510
H532        H  0.31957672  0.31429165  0.32304192     0.08500
H533        H  0.30572825  0.33275123  0.35981426     0.08500
H534        H  0.31758849  0.29446317  0.35836292     0.05270
C535        C  0.34939877  0.38561266  0.86567177    -0.02720
C536        C  0.13141688  0.13844290  0.58341656    -0.02720
C537        C  0.06065450  0.40812436  0.92416086     0.42230
N538        N  0.03852067  0.45223066  0.92828599     0.01120
C539        C  0.01973351  0.03111869  0.57095444    -0.06760
H540        H  0.44787529  0.44123311  0.56356971     0.06610
C541        C  0.38600811  0.49776071  0.97658850    -0.07110
Co542      Co  0.04098488  0.47312217  0.99467237     0.74180
N543        N  0.48152865  0.45785428  0.53006685    -0.26290
Co544      Co  0.46941085  0.50267082  0.52530088     0.74070
C545        C  0.37567167  0.48384206  0.00550802     0.42330
N546        N  0.45350496  0.49502384  0.91394041     0.00740
N547        N  0.42699424  0.48990841  0.50472263     0.00480
N548        N  0.06485569  0.01114426  0.54960803    -0.47130
H549        H  0.06108746  0.40581811  0.97695287     0.06600
N550        N  0.00828305  0.44679766  0.51766366     0.01130
N551        N  0.45682600  0.04837225  0.51931545     0.00870
C552        C  0.43826392  0.09361227  0.52390806     0.42470
N553        N  0.48098940  0.48461446  0.90256061    -0.25740
C554        C  0.10690229  0.00063566  0.96889276    -0.06660
N555        N  0.05198472  0.43204030  0.90775435    -0.46850
N556        N  0.44709540  0.06996051  0.54038545    -0.47070
C557        C  0.11614909  0.01667686  0.94074629     0.42240
N558        N  0.03966730  0.00240399  0.53337497     0.01110
N559        N  0.51058769  0.04222156  0.91767503    -0.25760
N560        N  0.04079002  0.44354076  0.95683355    -0.26260
N561        N  0.48318055  0.05276816  0.92884677     0.00750
H562        H  0.54628256  0.06004472  0.88705992     0.06640
H563        H  0.43323434  0.09483070  0.97126646     0.06680
N564        N  0.01290134  0.01395913  0.54512122    -0.26310
N565        N  0.41825265  0.50013022  0.97795645    -0.25920
N566        N  0.06487989  0.01249230  0.94489296     0.01120
C567        C  0.99088706  0.41240087  0.54637086     0.42520
C568        C  0.47624830  0.47018804  0.87464166    -0.07170
N569        N  0.45221074  0.05598286  0.99070372    -0.25920
H570        H  0.37139469  0.50769306  0.95954297     0.06660
N571        N  0.01477813  0.41996003  0.52701690    -0.47140
H572        H  0.49498851  0.46176789  0.85894840     0.06650
C573        C  0.50158096  0.08778668  0.90121945     0.42350
C574        C  0.05269230  0.41608152  0.95647926    -0.06670
Co575      Co  0.02395240  0.99781843  0.92308057     0.73820
N576        N  0.42970733  0.48832547  0.89493166    -0.46860
C577        C  0.05446805  0.03034391  0.57296068     0.42620
N578        N  0.08824751  0.02383728  0.92843900    -0.46850
Co579      Co  0.45159522  0.02581663  0.95261399     0.73890
C580        C  0.44188922  0.08404096  0.99130432    -0.07170
C581        C  0.46849784  0.43754058  0.54837704    -0.06740
N582        N  0.07452586  0.99940005  0.96962976    -0.26260
N583        N  0.40277844  0.48019494  0.52132885    -0.47030
H584        H  0.50257132  0.04414011  0.58541418     0.06620
C585        C  0.52423860  0.06293397  0.90027036    -0.07150
Cl586      Cl  0.49634136  0.99981738  0.97390309    -0.50150
C587        C  0.44209500  0.47263451  0.86960643     0.42380
H588        H  0.12215227  0.98832007  0.98349256     0.06590
N589        N  0.47672501  0.07969142  0.91931218    -0.46860
C590        C  0.20011651  0.16456304  0.98881412     0.42230
N591        N  0.22352378  0.20431733  0.00983003     0.01120
C592        C  0.20126294  0.33580045  0.93686052    -0.06760
H593        H  0.21939607  0.25622259  0.86649619     0.06610
C594        C  0.31847976  0.21880735  0.91294480    -0.07110
Co595      Co  0.19662931  0.25940086  0.98355068     0.74180
N596        N  0.21530849  0.25575988  0.91647867    -0.26290
Co597      Co  0.25094646  0.28432597  0.93304080     0.74070
C598        C  0.30031558  0.21670613  0.88344628     0.42330
N599        N  0.31568038  0.21401653  0.99038285     0.00740
N600        N  0.28481437  0.25494866  0.91352935     0.00840
N601        N  0.16656228  0.31819091  0.97201622    -0.47130
H602        H  0.16706582  0.19333170  0.96106853     0.06600
N603        N  0.19281495  0.24658862  0.93546752     0.01130
N604        N  0.28560693  0.31224342  0.95202914     0.00870
C605        C  0.30884825  0.35426901  0.96646069     0.42470
N606        N  0.29473516  0.20428044  0.01078461    -0.25740
C607        C  0.18950788  0.29806895  0.54786688    -0.06660
N608        N  0.22346335  0.17452394  0.00868412    -0.46850
N609        N  0.28361989  0.34140304  0.95155035    -0.47070
C610        C  0.20762496  0.30188179  0.57716719     0.42240
N611        N  0.19376361  0.30340260  0.97159315     0.01110
N612        N  0.29369251  0.26142489  0.54543494    -0.25760
N613        N  0.20116791  0.21476874  0.99240612    -0.26260
N614        N  0.31599654  0.27138332  0.52651167     0.00750
H615        H  0.28943340  0.26066538  0.59533705     0.06640
H616        H  0.34884191  0.32965558  0.99077350     0.06680
N617        N  0.21443646  0.31287135  0.95084166    -0.26310
N618        N  0.30732530  0.24330239  0.93003517    -0.25920
N619        N  0.22392622  0.26253682  0.54884497     0.01120
C620        C  0.17621471  0.23383163  0.88912839     0.42520
C621        C  0.30655630  0.17962976  0.02285907    -0.07170
N622        N  0.31059526  0.30378585  0.96734854    -0.25920
H623        H  0.33502682  0.20281432  0.92120870     0.06660
N624        N  0.16804471  0.23439050  0.91992332    -0.47140
H625        H  0.29664814  0.16916280  0.04294868     0.06650
C626        C  0.33207856  0.28411861  0.57309158     0.42350
C627        C  0.18595705  0.19158932  0.97771516    -0.06670
Co628      Co  0.25786717  0.23240018  0.52951063     0.73820
N629        N  0.34179929  0.19758791  0.98839878    -0.46860
C630        C  0.16920274  0.33910900  0.95082482     0.42620
N631        N  0.22838096  0.27890877  0.57555405    -0.46850
Co632      Co  0.31387720  0.25841981  0.97775530     0.73890
C633        C  0.32756628  0.32896511  0.97672406    -0.07170
C634        C  0.20713174  0.24861166  0.88693138    -0.06740
N635        N  0.20141837  0.27345947  0.53179465    -0.26260
N636        N  0.28010332  0.23988928  0.88623944    -0.47030
H637        H  0.21025739  0.34476374  0.91557208     0.06620
C638        C  0.30158734  0.26863872  0.57501906    -0.07150
Cl639      Cl  0.25513582  0.25879003  0.98095699    -0.50150
C640        C  0.33823476  0.17538538  0.00816166     0.42380
H641        H  0.17279080  0.31336703  0.53866865     0.06590
N642        N  0.34030190  0.28425251  0.54230519    -0.46860
C643        C  0.10296798  0.24254508  0.77836136     0.42230
N644        N  0.06469294  0.23391041  0.74622056     0.01120
C645        C  0.47615521  0.34012553  0.67692832    -0.06760
H646        H  0.00657703  0.38188329  0.77258986     0.06610
C647        C  0.43776599  0.27199611  0.81954186    -0.07110
Co648      Co  0.04690790  0.28882421  0.71416565     0.74180
N649        N  0.01958542  0.33644985  0.75816022    -0.26290
Co650      Co  0.47492313  0.31560600  0.74354842     0.74070
C651        C  0.43762718  0.30222798  0.83386661     0.42330
N652        N  0.47961221  0.21409787  0.78417307     0.00740
N653        N  0.45963992  0.30279586  0.78805777     0.00840
N654        N  0.02383878  0.32141372  0.65789548    -0.47130
H655        H  0.10826860  0.29182304  0.76553527     0.06600
N656        N  0.04692963  0.32487986  0.74781728     0.01130
N657        N  0.43338919  0.29557385  0.72469117     0.00870
C658        C  0.39665625  0.28569587  0.69064795     0.42470
N659        N  0.50713076  0.20432078  0.77250026    -0.25740
C660        C  0.05497413  0.25647273  0.64942470    -0.06660
N661        N  0.08172861  0.22156972  0.76755955    -0.46850
N662        N  0.41703964  0.30715274  0.70231928    -0.47070
C663        C  0.05000190  0.22627982  0.63522027     0.42240
N664        N  0.01813347  0.31411132  0.68690315     0.01110
N665        N  0.47942651  0.19422486  0.71188966    -0.25760
N666        N  0.07319219  0.26219262  0.74251406    -0.26260
N667        N  0.45201964  0.20521799  0.72235795     0.00750
H668        H  0.49282668  0.15048572  0.69241875     0.06640
H669        H  0.39224557  0.23654198  0.70393873     0.06680
N670        N  0.49006679  0.32479516  0.69873823    -0.26310
N671        N  0.45099999  0.27449480  0.79143552    -0.25920
N672        N  0.03672644  0.22702087  0.68384653     0.01120
C673        C  0.05981094  0.37174518  0.76081990     0.42520
C674        C  0.02051826  0.18485668  0.79101066    -0.07170
N675        N  0.42537926  0.26717413  0.72827759    -0.25920
H676        H  0.42636832  0.25187552  0.82747188     0.06660
N677        N  0.07079372  0.34483021  0.74911692    -0.47140
H678        H  0.04188486  0.17183985  0.78638096     0.06650
C679        C  0.43930837  0.15984268  0.70402969     0.42350
C680        C  0.09737670  0.26968702  0.76194871    -0.06670
Co681      Co  0.02300305  0.21441583  0.72769926     0.73820
N682        N  0.47185908  0.20193172  0.81077415    -0.46860
C683        C  0.99826704  0.33694618  0.64947475     0.42620
N684        N  0.03872776  0.20925062  0.65805440    -0.46850
Co685      Co  0.45145537  0.24048111  0.75672780     0.73890
C686        C  0.40217064  0.25902968  0.70793428    -0.07170
C687        C  0.02527357  0.36587023  0.76715633    -0.06740
N688        N  0.04643401  0.25468441  0.67941183    -0.26260
N689        N  0.45116383  0.32040905  0.81294141    -0.47030
H690        H  0.45368010  0.35172286  0.67960433     0.06620
C691        C  0.47399384  0.16585658  0.69949622    -0.07150
Cl692      Cl  0.49878070  0.26518388  0.73628661    -0.50150
C693        C  0.49642604  0.18393876  0.81721939     0.42380
H694        H  0.06378790  0.27652261  0.63914345     0.06590
N695        N  0.42806004  0.18568746  0.71828976    -0.46860
C696        C  0.20072336  0.50644134  0.83566347     0.42230
N697        N  0.23603014  0.51287911  0.79985872     0.01120
C698        C  0.21417058  0.07356731  0.65909086    -0.06760
H699        H  0.15940032  0.45750836  0.67903149     0.06610
C700        C  0.26289253  0.42250309  0.67031254    -0.07110
Co701      Co  0.20733753  0.04487267  0.74868151     0.74180
N702        N  0.18039145  0.49766599  0.70215896    -0.26290
Co703      Co  0.22133459  0.50688045  0.67490759     0.74070
C704        C  0.23346456  0.41440165  0.65312595     0.42330
N705        N  0.29311715  0.46079538  0.74036856     0.00740
N706        N  0.23216777  0.46111754  0.67036893     0.00840
N707        N  0.20340209  0.09652766  0.70655367    -0.47130
H708        H  0.16174773  0.52797573  0.80784613     0.06600
N709        N  0.17473161  0.51200238  0.72970646     0.01130
N710        N  0.26303329  0.01423782  0.64814072     0.00870
C711        C  0.29561295  0.01381709  0.60849934     0.42470
N712        N  0.28623175  0.47476860  0.76775099    -0.25740
C713        C  0.23879145  0.10516924  0.78080717    -0.06660
N714        N  0.23223404  0.50335060  0.82852395    -0.46850
N715        N  0.26474208  0.01806460  0.61760813    -0.47070
C716        C  0.26796408  0.11161150  0.79921158     0.42240
N717        N  0.20739778  0.06723965  0.70807493     0.01110
N718        N  0.31964983  0.02950806  0.74793491    -0.25760
N719        N  0.20918569  0.52279634  0.78894048    -0.26260
N720        N  0.32524660  0.01687740  0.71958787     0.00750
H721        H  0.34117515  0.06735890  0.77436566     0.06640
H722        H  0.33617602  0.99652351  0.63743033     0.06680
N723        N  0.21306761  0.05311254  0.68048543    -0.26310
N724        N  0.26006082  0.45194815  0.67974338    -0.25920
N725        N  0.26841910  0.06577965  0.77938764     0.01120
C726        C  0.13962450  0.47537080  0.72693246     0.42520
C727        C  0.28074886  0.45432353  0.78835684    -0.07170
N728        N  0.29067360  0.00614434  0.65906758    -0.25920
H729        H  0.28392648  0.40912381  0.67286783     0.06660
N730        N  0.15111230  0.49901416  0.74536512    -0.47140
H731        H  0.27334702  0.45920733  0.81239898     0.06650
C732        C  0.36035283  0.05307622  0.72525526     0.42350
C733        C  0.18580992  0.51986309  0.80979512    -0.06670
Co734      Co  0.27851717  0.02015392  0.77407115     0.73820
N735        N  0.29311824  0.43106828  0.74126509    -0.46860
C736        C  0.20748836  0.10235702  0.67630038     0.42620
N737        N  0.28471599  0.08595763  0.79713208    -0.46850
Co738      Co  0.29331863  0.48370507  0.70005985     0.73890
C739        C  0.31266502  0.00609800  0.63622166    -0.07170
C740        C  0.15931802  0.47451983  0.69831632    -0.06740
N741        N  0.24110557  0.07603303  0.76970428    -0.26260
N742        N  0.21591550  0.43968265  0.65412472    -0.47030
H743        H  0.21854731  0.06880448  0.63431257     0.06620
C744        C  0.34100756  0.05190662  0.75375271    -0.07150
Cl745      Cl  0.25017023  0.51409535  0.72445063    -0.50150
C746        C  0.28453695  0.42542064  0.77073710     0.42380
H747        H  0.21799782  0.11905211  0.77906348     0.06590
N748        N  0.34898629  0.03074108  0.70500486    -0.46860
C749        C  0.41236116  0.07612523  0.70833566    -0.20530
C750        C  0.37989972  0.07964765  0.71619355    -0.07100
C751        C  0.36690628  0.10884725  0.71661683     0.13770
C752        C  0.38684176  0.13363093  0.71067437    -0.20590
C753        C  0.41996024  0.13078412  0.70483495    -0.07100
C754        C  0.43261669  0.10113633  0.70290548     0.13760
C755        C  0.46733406  0.09524057  0.69603880    -0.23940
H756        H  0.42222567  0.05370087  0.70762665     0.15050
H757        H  0.37635476  0.15579512  0.71153058     0.15070
C758        C  0.33183093  0.11419964  0.72300905    -0.23880
H759        H  0.47261467  0.07079032  0.69481483     0.05290
H760        H  0.48210308  0.10622358  0.71499395     0.08510
H761        H  0.47407578  0.10364707  0.67303010     0.08510
H762        H  0.32556857  0.10958025  0.74743696     0.08500
H763        H  0.31727773  0.09944945  0.70659051     0.08500
H764        H  0.32532269  0.13791728  0.71997393     0.05270
C765        C  0.11258000  0.39839222  0.75442759    -0.20530
C766        C  0.07893169  0.40057081  0.75598451    -0.07100
C767        C  0.06567401  0.42876400  0.74946380     0.13770
C768        C  0.08598085  0.45289249  0.74099576    -0.20590
C769        C  0.11932180  0.44996545  0.73835895    -0.07100
C770        C  0.13268165  0.42237347  0.74575439     0.13760
C771        C  0.16834712  0.41812636  0.74463859    -0.23940
H772        H  0.12340005  0.37731868  0.75944385     0.15050
H773        H  0.07562995  0.47405040  0.73554473     0.15070
C774        C  0.03024144  0.43370498  0.75026790    -0.23880
H775        H  0.17502988  0.39566460  0.75205826     0.05290
H776        H  0.18010547  0.43555886  0.76056179     0.08510
H777        H  0.17758892  0.42000545  0.72043717     0.08510
H778        H  0.02086528  0.43151758  0.77435469     0.08500
H779        H  0.01830307  0.41722807  0.73344645     0.08500
H780        H  0.02419434  0.45660951  0.74363143     0.05270
C781        C  0.20490811  0.35821108  0.58666752    -0.20530
C782        C  0.21265592  0.33030630  0.59791075    -0.07100
C783        C  0.22682455  0.33043319  0.62790968     0.13770
C784        C  0.23338285  0.35805478  0.64514575    -0.20590
C785        C  0.22576183  0.38585180  0.63375171    -0.07100
C786        C  0.21124093  0.38577613  0.60399699     0.13760
C787        C  0.20353613  0.41470191  0.58955584    -0.23940
H788        H  0.19452043  0.35866040  0.56371737     0.15050
H789        H  0.24431954  0.35792920  0.66791648     0.15070
C790        C  0.23455966  0.30157753  0.64241816    -0.23880
H791        H  0.19430211  0.41052277  0.56543923     0.05290
H792        H  0.22541179  0.42901377  0.58825189     0.08510
H793        H  0.18485125  0.42698782  0.60368620     0.08510
H794        H  0.25382803  0.28967593  0.62886316     0.08500
H795        H  0.21290069  0.28691606  0.64301836     0.08500
H796        H  0.24305116  0.30581814  0.66679915     0.05270
C797        C  0.27362634  0.16735426  0.81094867    -0.20530
C798        C  0.27614511  0.13824932  0.82116084    -0.07100
C799        C  0.28759408  0.13504481  0.85182495     0.13770
C800        C  0.29640605  0.16079953  0.87109500    -0.20590
C801        C  0.29403137  0.18996192  0.86088089    -0.07100
C802        C  0.28256741  0.19312720  0.83017465     0.13760
C803        C  0.28040204  0.22359054  0.81703798    -0.23940
H804        H  0.26508259  0.16992194  0.78753184     0.15050
H805        H  0.30438320  0.15811151  0.89466965     0.15070
C806        C  0.28934884  0.10460159  0.86506741    -0.23880
H807        H  0.27344903  0.22166628  0.79204457     0.05290
H808        H  0.30394340  0.23536955  0.81868231     0.08510
H809        H  0.26209176  0.23739044  0.82998844     0.08510
H810        H  0.30748696  0.09060421  0.85204183     0.08500
H811        H  0.26563827  0.09310588  0.86351833     0.08500
H812        H  0.29632676  0.10648399  0.89005584     0.05270
C813        C  0.12855519  0.25198813  0.86316382    -0.20530
C814        C  0.15395224  0.23178714  0.86279290    -0.07100
C815        C  0.16155721  0.21430313  0.83496231     0.13770
C816        C  0.14430745  0.21824243  0.80776758    -0.20590
C817        C  0.12032220  0.23982310  0.80762105    -0.07100
C818        C  0.11160132  0.25628321  0.83581075     0.13760
C819        C  0.08433143  0.27809272  0.83722929    -0.23940
H820        H  0.12302410  0.26551743  0.88448112     0.15050
H821        H  0.15003439  0.20491053  0.78631589     0.15070
C822        C  0.18796060  0.19155734  0.83394279    -0.23880
H823        H  0.08011034  0.28815179  0.86138606     0.05290
H824        H  0.06205597  0.26622642  0.82929720     0.08510
H825        H  0.08969236  0.29676105  0.82203514     0.08510
H826        H  0.18299082  0.17482981  0.85150667     0.08500
H827        H  0.21118205  0.20294795  0.83917999     0.08500
H828        H  0.19016718  0.17923559  0.81056615     0.05270
C829        C  0.35420541  0.31235369  0.61957111    -0.20530
C830        C  0.35420460  0.28609420  0.59956379    -0.07100
C831        C  0.36889165  0.25995374  0.60915646     0.13770
C832        C  0.38266831  0.26053888  0.63886814    -0.20590
C833        C  0.38192716  0.28656281  0.65940646    -0.07100
C834        C  0.36804101  0.31301734  0.64934172     0.13760
C835        C  0.36636865  0.34160150  0.67034322    -0.23940
H836        H  0.34204248  0.33203065  0.61241049     0.15050
H837        H  0.39388422  0.24042479  0.64611714     0.15070
C838        C  0.36929417  0.23115911  0.58836607    -0.23880
H839        H  0.35319663  0.35947227  0.65928899     0.05290
H840        H  0.39076985  0.35047250  0.67541783     0.08510
H841        H  0.35386700  0.33708670  0.69259535     0.08510
H842        H  0.38131488  0.23537655  0.56583497     0.08500
H843        H  0.34456543  0.22286232  0.58379136     0.08500
H844        H  0.38234558  0.21305975  0.59916709     0.05270
C845        C  0.42206725  0.14570153  0.02207746    -0.20530
C846        C  0.41485362  0.11748779  0.53287667    -0.07100
C847        C  0.38304667  0.11021813  0.04043341     0.13770
C848        C  0.35849825  0.13017321  0.03361928    -0.20590
C849        C  0.36524850  0.15697479  0.01891717    -0.07100
C850        C  0.39785619  0.16539711  0.01455762     0.13760
C851        C  0.40791524  0.19451746  0.00098316    -0.23940
H852        H  0.44630323  0.15123764  0.51593475     0.15050
H853        H  0.33384305  0.12383113  0.03799384     0.15070
C854        C  0.37462520  0.08060977  0.55346963    -0.23880
H855        H  0.43423884  0.19793980  0.00131388     0.05290
H856        H  0.39716447  0.21390033  0.01481238     0.08510
H857        H  0.40055903  0.19432394  0.97619010     0.08510
H858        H  0.38788509  0.07851648  0.57544928     0.08500
H859        H  0.38105358  0.06168739  0.03638346     0.08500
H860        H  0.34892996  0.07895139  0.05901743     0.05270
C861        C  0.14601814  0.38262319  0.92599059    -0.20530
C862        C  0.14132879  0.35417730  0.93746023    -0.07100
C863        C  0.11008762  0.34119112  0.93635145     0.13770
C864        C  0.08437040  0.35805466  0.92636220    -0.20590
C865        C  0.08853371  0.38790522  0.91831120    -0.07100
C866        C  0.12001046  0.39976000  0.91730582     0.13760
C867        C  0.12592112  0.43143592  0.90952392    -0.23940
H868        H  0.16986536  0.39245650  0.92609287     0.15050
H869        H  0.06029038  0.34892034  0.92784975     0.15070
C870        C  0.10318701  0.30991700  0.94634384    -0.23880
H871        H  0.15180345  0.43724093  0.90869305     0.05290
H872        H  0.11419691  0.44696877  0.92739297     0.08510
H873        H  0.11561173  0.43417376  0.88630961     0.08510
H874        H  0.10511391  0.30905506  0.47259606     0.08500
H875        H  0.11924335  0.29356227  0.93355835     0.08500
H876        H  0.07817961  0.30263485  0.94135987     0.05270
C877        C  0.13160028  0.99387477  0.88874611    -0.20530
C878        C  0.14178146  0.00793277  0.91744388    -0.07100
C879        C  0.17415655  0.01682137  0.92039510     0.13770
C880        C  0.19492741  0.01303446  0.89398293    -0.20590
C881        C  0.18357766  0.50073478  0.86514416    -0.07100
C882        C  0.15220400  0.98880557  0.86319065     0.13760
C883        C  0.13896349  0.97224692  0.83395899    -0.23940
H884        H  0.10683210  0.98683582  0.88596647     0.15050
H885        H  0.21903923  0.52218212  0.89551537     0.15070
C886        C  0.18604969  0.03207737  0.95051349    -0.23880
H887        H  0.12837633  0.95030088  0.83957717     0.05290
H888        H  0.15713046  0.46762028  0.81580383     0.08510
H889        H  0.12007246  0.98585925  0.82403235     0.08510
H890        H  0.18259358  0.01678774  0.96971706     0.08500
H891        H  0.17258241  0.05309813  0.95628842     0.08500
H892        H  0.21184474  0.03801107  0.94888257     0.05270
C893        C  0.31934352  0.47403598  0.57243814    -0.20530
C894        C  0.30620813  0.00309291  0.57637458    -0.07100
C895        C  0.30853361  0.52204948  0.55171580     0.13770
C896        C  0.32867949  0.51402611  0.52569573    -0.20590
C897        C  0.34545066  0.48669789  0.52385541    -0.07100
C898        C  0.33840245  0.46551869  0.54624669     0.13760
C899        C  0.35213070  0.43423688  0.54338949    -0.23940
H900        H  0.31616020  0.45860691  0.59077588     0.15050
H901        H  0.33323016  0.53009305  0.50824053     0.15070
C902        C  0.29046213  0.05127811  0.55298203    -0.23880
H903        H  0.34271170  0.42023619  0.56202401     0.05290
H904        H  0.37848910  0.43502889  0.54537862     0.08510
H905        H  0.34553125  0.42286584  0.52047493     0.08510
H906        H  0.29717893  0.06563289  0.57417398     0.08500
H907        H  0.26451279  0.54619627  0.55459002     0.08500
H908        H  0.29534106  0.56395891  0.53236429     0.05270
C909        C  0.02429260  0.36470308  0.60820100    -0.20530
C910        C  0.99615444  0.35223025  0.62011281    -0.07100
C911        C  0.46670362  0.35673611  0.60532496     0.13770
C912        C  0.46599217  0.37614364  0.58094740    -0.20590
C913        C  0.99398278  0.38987871  0.56989012    -0.07100
C914        C  0.02374557  0.38338565  0.58323242     0.13760
C915        C  0.05493967  0.39711926  0.57275981    -0.23940
H916        H  0.04677129  0.36090930  0.61944166     0.15050
H917        H  0.44341696  0.38029514  0.57003370     0.15070
C918        C  0.43612505  0.34049419  0.61316869    -0.23880
H919        H  0.07534878  0.39027755  0.58682108     0.05290
H920        H  0.05373816  0.42208171  0.57542580     0.08510
H921        H  0.06014578  0.38952125  0.54800236     0.08510
H922        H  0.41828859  0.35704461  0.62264834     0.08500
H923        H  0.43938175  0.32315264  0.63009963     0.08500
H924        H  0.42647331  0.32857706  0.59159808     0.05270
C925        C  0.49250405  0.14151562  0.89148968    -0.20530
C926        C  0.49968333  0.11213857  0.87938469    -0.07100
C927        C  0.50267480  0.10625991  0.84656766     0.13770
C928        C  0.50070045  0.13015715  0.82705794    -0.20590
C929        C  0.49499678  0.15970276  0.83919882    -0.07100
C930        C  0.49015420  0.16541888  0.87172403     0.13760
C931        C  0.48354784  0.19677336  0.88558828    -0.23940
H932        H  0.48921120  0.14583935  0.91653893     0.15050
H933        H  0.00447602  0.12534817  0.80171228     0.15070
C934        C  0.00687949  0.07450660  0.83156030    -0.23880
H935        H  0.48088115  0.19743882  0.91146195     0.05290
H936        H  0.46108191  0.20499437  0.87593567     0.08510
H937        H  0.50356347  0.21216043  0.87980886     0.08510
H938        H  0.48733158  0.05978667  0.84003568     0.08500
H939        H  0.03045518  0.06549073  0.83714666     0.08500
H940        H  0.00546231  0.07388719  0.80564750     0.05270
C941        C  0.13982638  0.13893530  0.64179788    -0.20530
C942        C  0.15385408  0.14290938  0.61214458    -0.07100
C943        C  0.18744940  0.14921231  0.61176798     0.13770
C944        C  0.20581765  0.13867213  0.63576616    -0.20590
C945        C  0.19107599  0.12651008  0.66166044    -0.07100
C946        C  0.15805838  0.13062319  0.66671508     0.13760
C947        C  0.14117528  0.12240877  0.69633079    -0.23940
H948        H  0.11422507  0.13868767  0.64458139     0.15050
H949        H  0.23162611  0.13833000  0.63338066     0.15070
C950        C  0.20500712  0.16722308  0.58818353    -0.23880
H951        H  0.11546074  0.12818371  0.69632257     0.05290
H952        H  0.15219312  0.13500268  0.71682343     0.08510
H953        H  0.14262697  0.09780917  0.69880029     0.08510
H954        H  0.18925979  0.17723733  0.57142526     0.08500
H955        H  0.22299961  0.15297597  0.57517295     0.08500
H956        H  0.21780688  0.18637193  0.60074460     0.05270
C957        C  0.11782931  0.19342776  0.59120175    -0.20530
C958        C  0.10622974  0.16339305  0.59011839    -0.07100
C959        C  0.07287869  0.15899727  0.59759466     0.13770
C960        C  0.05297999  0.18375423  0.59866132    -0.20590
C961        C  0.06594339  0.21191269  0.60755180    -0.07100
C962        C  0.09847324  0.21769873  0.60097889     0.13760
C963        C  0.11352522  0.24862058  0.60553991    -0.23940
H964        H  0.14272511  0.19779219  0.58618911     0.15050
H965        H  0.02760503  0.18009639  0.60293521     0.15070
C966        C  0.05722573  0.13195221  0.61167991    -0.23880
H967        H  0.13826600  0.24907800  0.59584076     0.05290
H968        H  0.11509694  0.25566234  0.63081155     0.08510
H969        H  0.09941128  0.26498554  0.59324586     0.08510
H970        H  0.07366223  0.11521312  0.61967421     0.08500
H971        H  0.03953786  0.12118419  0.59524944     0.08500
H972        H  0.04398618  0.13953640  0.63344403     0.05270
C973        C  0.14821126  0.14200821  0.49423914    -0.20530
C974        C  0.18100308  0.13714830  0.99376548    -0.07100
C975        C  0.19169068  0.11924145  0.01682262     0.13770
C976        C  0.17450470  0.11959518  0.54527714    -0.20590
C977        C  0.14829240  0.13941162  0.55092021    -0.07100
C978        C  0.13452957  0.15098093  0.52341505     0.13760
C979        C  0.10819251  0.17404855  0.52267869    -0.23940
H980        H  0.13784500  0.14954961  0.47315821     0.15050
H981        H  0.18308233  0.10640637  0.56342939     0.15070
C982        C  0.22219346  0.10197204  0.01238216    -0.23880
H983        H  0.10119186  0.17784577  0.49837224     0.05290
H984        H  0.11709434  0.19622137  0.53248809     0.08510
H985        H  0.08581526  0.16762699  0.53452705     0.08510
H986        H  0.24259245  0.11746148  0.00829177     0.08500
H987        H  0.21998415  0.08545099  0.99185747     0.08500
H988        H  0.22749077  0.08949216  0.03322246     0.05270
C989        C  0.09162482  0.10340283  0.55714631    -0.20530
C990        C  0.11550131  0.10679140  0.58004830    -0.07100
C991        C  0.12170186  0.08108528  0.59732361     0.13770
C992        C  0.09887981  0.05787269  0.59714606    -0.20590
C993        C  0.07285666  0.05767099  0.57735149    -0.07100
C994        C  0.07027022  0.07965471  0.55550595     0.13760
C995        C  0.04507105  0.07893957  0.53036293    -0.23940
H996        H  0.08746827  0.12078893  0.54182259     0.15050
H997        H  0.10265899  0.03858979  0.61078270     0.15070
C998        C  0.15234423  0.07426212  0.61306526    -0.23880
H999        H  0.04763139  0.09815930  0.51526158     0.05290
H1000       H  0.52064077  0.08079268  0.54140037     0.08510
H1001       H  0.04709630  0.05815685  0.51466528     0.08510
H1002       H  0.14800939  0.07318602  0.63857282     0.08500
H1003       H  0.17198521  0.08993472  0.60874559     0.08500
H1004       H  0.16100947  0.05189080  0.60367006     0.05270
C1005       C  0.40477447  0.40180732  0.84424195    -0.20530
C1006       C  0.37344198  0.40972956  0.85448254    -0.07100
C1007       C  0.36524370  0.44077778  0.85339424     0.13770
C1008       C  0.38956988  0.46202099  0.84959088    -0.20590
C1009       C  0.42145547  0.45347387  0.84928262    -0.07100
C1010       C  0.42890368  0.42326253  0.84153294     0.13760
C1011       C  0.46231903  0.41278302  0.83369975    -0.23940
H1012       H  0.41200568  0.37888350  0.84042150     0.15050
H1013       H  0.38412448  0.48583370  0.85236963     0.15070
C1014       C  0.33195066  0.45287205  0.85797673    -0.23880
H1015       H  0.46220206  0.38957355  0.82229813     0.05290
H1016       H  0.47648642  0.41225789  0.85531658     0.08510
H1017       H  0.47387222  0.42771183  0.81703049     0.08510
H1018       H  0.32106241  0.44714575  0.88046893     0.08500
H1019       H  0.33146451  0.47782573  0.85800801     0.08500
H1020       H  0.31736059  0.44443710  0.83809813     0.05270
C1021       C  0.30445352  0.39164473  0.90865978    -0.20530
C1022       C  0.33645796  0.39672947  0.89923043    -0.07100
C1023       C  0.35735359  0.40511292  0.92516263     0.13770
C1024       C  0.34924578  0.39396260  0.95454644    -0.20590
C1025       C  0.31732296  0.38583847  0.96017588    -0.07100
C1026       C  0.29560603  0.39761212  0.93983681     0.13760
C1027       C  0.26105781  0.40234719  0.94876712    -0.23940
H1028       H  0.28788623  0.37762152  0.89505067     0.15050
H1029       H  0.36697344  0.39214091  0.97244061     0.15070
C1030       C  0.38475267  0.42757435  0.92394893    -0.23880
H1031       H  0.25437539  0.42556297  0.94380772     0.05290
H1032       H  0.25696356  0.39963860  0.97409988     0.08510
H1033       H  0.24540811  0.38622890  0.93500692     0.08510
H1034       H  0.37526386  0.44955966  0.91799023     0.08500
H1035       H  0.40381885  0.42096607  0.90696107     0.08500
H1036       H  0.39621675  0.43129063  0.94715705     0.05270
C1037       C  0.29340704  0.39225972  0.83996117    -0.20530
C1038       C  0.32555530  0.38233588  0.83709550    -0.07100
C1039       C  0.33623031  0.37447934  0.80512839     0.13770
C1040       C  0.31810715  0.38326071  0.78006281    -0.20590
C1041       C  0.28892328  0.39710637  0.78543336    -0.07100
C1042       C  0.27395065  0.39464401  0.81431046     0.13760
C1043       C  0.23864461  0.40034537  0.81878437    -0.23940
H1044       H  0.28406409  0.40472976  0.86009833     0.15050
H1045       H  0.32868660  0.38280559  0.75675208     0.15070
C1046       C  0.36738611  0.36025712  0.79457262    -0.23880
H1047       H  0.23106314  0.39857293  0.84355989     0.05290
H1048       H  0.22505122  0.38310409  0.80421482     0.08510
H1049       H  0.23198157  0.42289258  0.81181909     0.08510
H1050       H  0.38126269  0.35136971  0.81287710     0.08500
H1051       H  0.38251422  0.37681448  0.78264878     0.08500
H1052       H  0.36245637  0.34071789  0.77765045     0.05270
C1053       C  0.39462901  0.35505063  0.88855949    -0.20530
C1054       C  0.36568189  0.35494942  0.87161297    -0.07100
C1055       C  0.35618622  0.32637320  0.85758343     0.13770
C1056       C  0.38030350  0.30584299  0.84831780    -0.20590
C1057       C  0.41234828  0.31285972  0.85561894    -0.07100
C1058       C  0.41888190  0.33514937  0.87926879     0.13760
C1059       C  0.45182882  0.34047335  0.89244573    -0.23940
H1060       H  0.40168492  0.37330185  0.90431619     0.15050
H1061       H  0.37444970  0.28636758  0.83273272     0.15070
C1062       C  0.32206055  0.31738672  0.85100144    -0.23880
H1063       H  0.46094175  0.36299333  0.88661226     0.05290
H1064       H  0.46901658  0.32319788  0.88318375     0.08510
H1065       H  0.45068659  0.33969543  0.91828480     0.08510
H1066       H  0.31672119  0.29552147  0.86109958     0.08500
H1067       H  0.30507713  0.33386103  0.86205763     0.08500
H1068       H  0.31818947  0.31472565  0.82536393     0.05270
C1069       C  0.34995781  0.88474403  0.36500522    -0.02720
C1070       C  0.13135832  0.63849820  0.08342936    -0.02720
C1071       C  0.05982105  0.90778057  0.42423051     0.42230
N1072       N  0.03814467  0.95208610  0.42828641     0.01120
C1073       C  0.01973358  0.53109682  0.07099205    -0.06760
H1074       H  0.44797093  0.94098354  0.06341987     0.06610
C1075       C  0.38619340  0.99780258  0.47654090    -0.07110
Co1076     Co  0.04082446  0.97309061  0.49463992     0.74180
N1077       N  0.48159354  0.95774137  0.02996662    -0.26290
Co1078     Co  0.46942493  0.00255900  0.02528957     0.74070
C1079       C  0.37583867  0.98387189  0.50544722     0.42330
N1080       N  0.45381745  0.99518402  0.41402464     0.00740
N1081       N  0.42698731  0.98979973  0.00471538     0.00480
N1082       N  0.06489175  0.51115667  0.04969541    -0.47130
H1083       H  0.06036954  0.90560879  0.47703645     0.06600
N1084       N  0.00843276  0.94682205  0.01767291     0.01130
N1085       N  0.45679495  0.54821477  0.01923248     0.00870
C1086       C  0.43827423  0.59347120  0.02383971     0.42470
N1087       N  0.48135874  0.98488236  0.40268873    -0.25740
C1088       C  0.10677632  0.50065433  0.46896090    -0.06660
N1089       N  0.05133083  0.93171691  0.40776524    -0.46850
N1090       N  0.44709832  0.56981163  0.04030862    -0.47070
C1091       C  0.11602983  0.51670925  0.44082418     0.42240
N1092       N  0.03972618  0.50238484  0.03344368     0.01110
N1093       N  0.51067555  0.54213702  0.41766248    -0.25760
N1094       N  0.04044002  0.94346665  0.45685677    -0.26260
N1095       N  0.48327484  0.55275163  0.42877656     0.00750
H1096       H  0.54647312  0.55982476  0.38707381     0.06640
H1097       H  0.43322493  0.59487906  0.47115268     0.06680
N1098       N  0.01293977  0.51391857  0.04515993    -0.26310
N1099       N  0.41843148  0.00022593  0.47796095    -0.25920
N1100       N  0.06475969  0.51251670  0.44495507     0.01120
C1101       C  0.99103598  0.91244971  0.04641266     0.42520
C1102       C  0.47670155  0.97029911  0.37484338    -0.07170
N1103       N  0.45225064  0.55607913  0.49063988    -0.25920
H1104       H  0.37158839  0.00771896  0.45947777     0.06660
N1105       N  0.01492776  0.91999244  0.02705023    -0.47140
H1106       H  0.49548759  0.96186154  0.35921515     0.06650
C1107       C  0.50181514  0.58767070  0.40109077     0.42350
C1108       C  0.05205178  0.91590575  0.45655219    -0.06670
Co1109     Co  0.02383825  0.49785097  0.42312659     0.73820
N1110       N  0.43004003  0.98821264  0.39507353    -0.46860
C1111       C  0.05446822  0.53035677  0.07303018     0.42620
N1112       N  0.08813115  0.52386753  0.42851028    -0.46850
Co1113     Co  0.45162587  0.52586883  0.45258578     0.73890
C1114       C  0.44188948  0.58412489  0.49120902    -0.07170
C1115       C  0.46859557  0.93735775  0.04821567    -0.06740
N1116       N  0.07439899  0.49941596  0.46968978    -0.26260
N1117       N  0.40274779  0.98013314  0.02132743    -0.47030
H1118       H  0.50266982  0.54397894  0.08524237     0.06620
C1119       C  0.52441182  0.56278394  0.40024155    -0.07150
Cl1120     Cl  0.49633628  0.49983519  0.47393336    -0.50150
C1121       C  0.44252229  0.97245253  0.36983468     0.42380
H1122       H  0.12202349  0.48833252  0.48355759     0.06590
N1123       N  0.47689895  0.57966622  0.41916450    -0.46860
C1124       C  0.19986281  0.66400364  0.48902437     0.42230
N1125       N  0.22299157  0.70380595  0.51028685     0.01120
C1126       C  0.19996485  0.83535886  0.43774490    -0.06760
H1127       H  0.21844454  0.75620366  0.36722976     0.06610
C1128       C  0.31772717  0.71906584  0.41337661    -0.07110
Co1129     Co  0.19569112  0.75885174  0.48423880     0.74180
N1130       N  0.21433849  0.75549692  0.41718616    -0.26290
Co1131     Co  0.24980304  0.78417342  0.43387692     0.74070
C1132       C  0.29950149  0.71696498  0.38391871     0.42330
N1133       N  0.31508863  0.71399288  0.49078767     0.00740
N1134       N  0.28382955  0.75503321  0.41417301     0.00840
N1135       N  0.16519438  0.81751510  0.47270061    -0.47130
H1136       H  0.16663248  0.69272623  0.46143138     0.06600
N1137       N  0.19187451  0.74616931  0.43611634     0.01130
N1138       N  0.28422051  0.81221442  0.45306473     0.00870
C1139       C  0.30749713  0.85435512  0.46710006     0.42470
N1140       N  0.29421501  0.70409108  0.51116529    -0.25740
C1141       C  0.18953631  0.79804987  0.04786752    -0.06660
N1142       N  0.22314533  0.67400730  0.50895281    -0.46850
N1143       N  0.28204418  0.84136558  0.45269347    -0.47070
C1144       C  0.20765168  0.80190396  0.07716403     0.42240
N1145       N  0.19249513  0.80287687  0.47239861     0.01110
N1146       N  0.29374489  0.76140273  0.04554359    -0.25760
N1147       N  0.20055455  0.71421390  0.49292510    -0.26260
N1148       N  0.31605863  0.77136433  0.02663235     0.00750
H1149       H  0.28950029  0.76055901  0.09543951     0.06640
H1150       H  0.34800189  0.82982768  0.49078175     0.06680
N1151       N  0.21318593  0.81248429  0.45174660    -0.26310
N1152       N  0.30645599  0.74344344  0.43057467    -0.25920
N1153       N  0.22396895  0.76253361  0.04889076     0.01120
C1154       C  0.17535447  0.73355427  0.38972033     0.42520
C1155       C  0.30616996  0.67943772  0.52312102    -0.07170
N1156       N  0.30945938  0.80382964  0.46802910    -0.25920
H1157       H  0.33439771  0.70313362  0.42154621     0.06660
N1158       N  0.16715004  0.73395892  0.42050285    -0.47140
H1159       H  0.29633147  0.66884782  0.54316567     0.06650
C1160       C  0.33216982  0.78400956  0.07323089     0.42350
C1161       C  0.18552594  0.69101302  0.47808101    -0.06670
Co1162     Co  0.25791967  0.73238572  0.02958887     0.73820
N1163       N  0.34128733  0.69767464  0.48871225    -0.46860
C1164       C  0.16784824  0.83849506  0.45155983     0.42620
N1165       N  0.22841697  0.77893714  0.07558231    -0.46850
Co1166     Co  0.31301349  0.75843817  0.47829482     0.73890
C1167       C  0.32646258  0.82907103  0.47711514    -0.07170
C1168       C  0.20621039  0.74844625  0.38761350    -0.06740
N1169       N  0.20146092  0.77343354  0.03182330    -0.26260
N1170       N  0.27914676  0.74003642  0.38684036    -0.47030
H1171       H  0.20895367  0.84431344  0.41645491     0.06620
C1172       C  0.30165369  0.76856467  0.07513627    -0.07150
Cl1173     Cl  0.25423346  0.75849778  0.48160743    -0.50150
C1174       C  0.33785197  0.67537350  0.50837821     0.42380
H1175       H  0.17281848  0.81333200  0.03864472     0.06590
N1176       N  0.34038302  0.78417977  0.04244274    -0.46860
C1177       C  0.10273484  0.74251725  0.27862136     0.42230
N1178       N  0.06460126  0.73388860  0.24631540     0.01120
C1179       C  0.47671217  0.83981425  0.17655177    -0.06760
H1180       H  0.00649342  0.88189776  0.27255468     0.06610
C1181       C  0.43916999  0.77164108  0.31933864    -0.07110
Co1182     Co  0.04688034  0.78882104  0.21426045     0.74180
N1183       N  0.01951978  0.83645193  0.25821219    -0.26290
Co1184     Co  0.47571860  0.81530853  0.24317191     0.74070
C1185       C  0.43891301  0.80187991  0.33364070     0.42330
N1186       N  0.48048784  0.71378997  0.28374449     0.00740
N1187       N  0.46064798  0.80250184  0.28771272     0.00840
N1188       N  0.02388598  0.82143297  0.15796046    -0.47130
H1189       H  0.10806143  0.79181604  0.26586246     0.06600
N1190       N  0.04687265  0.82487300  0.24790801     0.01130
N1191       N  0.43410390  0.79533231  0.22446726     0.00870
C1192       C  0.39719319  0.78548810  0.19059964     0.42470
N1193       N  0.50794224  0.70393731  0.27199608    -0.25740
C1194       C  0.05499488  0.75649523  0.14951397    -0.06660
N1195       N  0.08155144  0.72154210  0.26771132    -0.46850
N1196       N  0.41765290  0.80692612  0.20217310    -0.47070
C1197       C  0.05000334  0.72631580  0.13528374     0.42240
N1198       N  0.01814626  0.81412087  0.18696034     0.01110
N1199       N  0.48000184  0.69392609  0.21148228    -0.25760
N1200       N  0.07310603  0.76217816  0.24265838    -0.26260
N1201       N  0.45266006  0.70500356  0.22202851     0.00750
H1202       H  0.49318655  0.65012352  0.19199406     0.06640
H1203       H  0.39280918  0.73634386  0.20392461     0.06680
N1204       N  0.49070725  0.82449400  0.19831792    -0.26310
N1205       N  0.45212206  0.77418913  0.29113399    -0.25920
N1206       N  0.03671391  0.72702669  0.18390498     0.01120
C1207       C  0.05973855  0.87175370  0.26084870     0.42520
C1208       C  0.02038625  0.68484452  0.29104335    -0.07170
N1209       N  0.42609460  0.76694383  0.22809419    -0.25920
H1210       H  0.42786430  0.75149605  0.32731382     0.06660
N1211       N  0.07073258  0.84482621  0.24919870    -0.47140
H1212       H  0.04175352  0.67182514  0.28642807     0.06650
C1213       C  0.43973431  0.65967374  0.20375979     0.42350
C1214       C  0.09720525  0.76967153  0.26220159    -0.06670
Co1215     Co  0.02293533  0.71441392  0.22773957     0.73820
N1216       N  0.47277375  0.70167187  0.31037650    -0.46860
C1217       C  0.99832562  0.83696968  0.14951464     0.42620
N1218       N  0.03871363  0.70927243  0.15810011    -0.46850
Co1219     Co  0.45229815  0.74022238  0.25641496     0.73890
C1220       C  0.40277521  0.75882084  0.20786586    -0.07170
C1221       C  0.02519788  0.86588217  0.26716951    -0.06740
N1222       N  0.04644021  0.75468973  0.17949525    -0.26260
N1223       N  0.45225689  0.82009139  0.31263749    -0.47030
H1224       H  0.45424424  0.85141421  0.17930082     0.06620
C1225       C  0.47443330  0.66556599  0.19912170    -0.07150
Cl1226     Cl  0.49953631  0.76486941  0.23580819    -0.50150
C1227       C  0.49729039  0.68360879  0.31676752     0.42380
H1228       H  0.06381322  0.77655170  0.13924893     0.06590
N1229       N  0.42862218  0.68555762  0.21803754    -0.46860
C1230       C  0.20076684  0.00614170  0.33552786     0.42230
N1231       N  0.23600995  0.01270045  0.29968116     0.01120
C1232       C  0.21409737  0.57378714  0.15920764    -0.06760
H1233       H  0.15927958  0.95754384  0.17885986     0.06610
C1234       C  0.26292250  0.92271627  0.16999195    -0.07110
Co1235     Co  0.20723419  0.54508801  0.24879310     0.74180
N1236       N  0.18027495  0.99767717  0.20203706    -0.26290
Co1237     Co  0.22117827  0.00700140  0.17475658     0.74070
C1238       C  0.23346056  0.91455757  0.15289054     0.42330
N1239       N  0.29326567  0.96094310  0.23992616     0.00740
N1240       N  0.23210584  0.96126921  0.17012514     0.00840
N1241       N  0.20327190  0.59674081  0.20666109    -0.47130
H1242       H  0.16169554  0.02764969  0.30781604     0.06600
N1243       N  0.17461915  0.01197079  0.22960697     0.01130
N1244       N  0.26298540  0.51449879  0.14825437     0.00870
C1245       C  0.29555098  0.51401766  0.10859655     0.42470
N1246       N  0.28634640  0.97475684  0.26738154    -0.25740
C1247       C  0.23857241  0.60540744  0.28096016    -0.06660
N1248       N  0.23227425  0.00310575  0.32832711    -0.46850
N1249       N  0.26468301  0.51827297  0.11771074    -0.47070
C1250       C  0.26772425  0.61189822  0.29938089     0.42240
N1251       N  0.20728078  0.56745462  0.20818563     0.01110
N1252       N  0.31957467  0.52982153  0.24804816    -0.25760
N1253       N  0.20912871  0.02261633  0.28882990    -0.26260
N1254       N  0.32519027  0.51715567  0.21971921     0.00750
H1255       H  0.34113101  0.56766526  0.27446475     0.06640
H1256       H  0.33612242  0.49676884  0.13754470     0.06680
N1257       N  0.21298209  0.55333234  0.18060019    -0.26310
N1258       N  0.26005079  0.95215553  0.17942371    -0.25920
N1259       N  0.26829447  0.56607740  0.27950618     0.01120
C1260       C  0.13952254  0.97533791  0.22679795     0.42520
C1261       C  0.28117789  0.95416743  0.28790609    -0.07170
N1262       N  0.29063275  0.50642993  0.15918760    -0.25920
H1263       H  0.28398441  0.90936816  0.17251881     0.06660
N1264       N  0.15101000  0.99895991  0.24525407    -0.47140
H1265       H  0.27388297  0.95887822  0.31200990     0.06650
C1266       C  0.36034882  0.55329773  0.22537815     0.42350
C1267       C  0.18578296  0.01958111  0.30970611    -0.06670
Co1268     Co  0.27844497  0.52044960  0.27419076     0.73820
N1269       N  0.29360265  0.93121680  0.24066591    -0.46860
C1270       C  0.20738359  0.60257155  0.17641048     0.42620
N1271       N  0.28454012  0.58627679  0.29727776    -0.46850
Co1272     Co  0.29326782  0.98395482  0.19974476     0.73890
C1273       C  0.31261613  0.50635245  0.13633175    -0.07170
C1274       C  0.15920877  0.97452478  0.19817359    -0.06740
N1275       N  0.24095770  0.57628657  0.26982750    -0.26260
N1276       N  0.21585107  0.93980275  0.15392975    -0.47030
H1277       H  0.21850519  0.56902720  0.13443393     0.06620
C1278       C  0.34095434  0.55220398  0.25385804    -0.07150
Cl1279     Cl  0.25006603  0.01416716  0.22427705    -0.50150
C1280       C  0.28521946  0.92536863  0.27011548     0.42380
H1281       H  0.21773975  0.61924296  0.27923455     0.06590
N1282       N  0.34897822  0.53095471  0.20514778    -0.46860
C1283       C  0.41243245  0.57609758  0.20833263    -0.20530
C1284       C  0.38001066  0.57977767  0.21628440    -0.07100
C1285       C  0.36714905  0.60902607  0.21667766     0.13770
C1286       C  0.38717740  0.63370379  0.21060350    -0.20590
C1287       C  0.42026592  0.63070248  0.20467179    -0.07100
C1288       C  0.43278650  0.60100691  0.20278447     0.13760
C1289       C  0.46745964  0.59496106  0.19583653    -0.23940
H1290       H  0.42218934  0.55363084  0.20763529     0.15050
H1291       H  0.37679108  0.65591015  0.21142965     0.15070
C1292       C  0.33211710  0.61454177  0.22316259    -0.23880
H1293       H  0.47263316  0.57049042  0.19466277     0.05290
H1294       H  0.48232467  0.60593407  0.21472272     0.08510
H1295       H  0.47417599  0.60328784  0.17278547     0.08510
H1296       H  0.32590278  0.61000709  0.24762514     0.08500
H1297       H  0.31744917  0.59981818  0.20682252     0.08500
H1298       H  0.32570942  0.63827711  0.22008585     0.05270
C1299       C  0.11249952  0.89837795  0.25434297    -0.20530
C1300       C  0.07885313  0.90056795  0.25594990    -0.07100
C1301       C  0.06559032  0.92875685  0.24942188     0.13770
C1302       C  0.08589015  0.95287024  0.24090361    -0.20590
C1303       C  0.11922610  0.94992870  0.23821663    -0.07100
C1304       C  0.13259238  0.92234213  0.24561436     0.13760
C1305       C  0.16825561  0.91808500  0.24444613    -0.23940
H1306       H  0.12332500  0.87730889  0.25936558     0.15050
H1307       H  0.07553721  0.97402947  0.23545953     0.15070
C1308       C  0.03016025  0.93371190  0.25027801    -0.23880
H1309       H  0.17494639  0.89562660  0.25186876     0.05290
H1310       H  0.18004356  0.93552300  0.26034027     0.08510
H1311       H  0.17745741  0.91994876  0.22022825     0.08510
H1312       H  0.02081951  0.93153155  0.27437877     0.08500
H1313       H  0.01819180  0.91723823  0.23347516     0.08500
H1314       H  0.02411018  0.95661746  0.24364678     0.05270
C1315       C  0.20483979  0.85823483  0.08658847    -0.20530
C1316       C  0.21267268  0.83036201  0.09785794    -0.07100
C1317       C  0.22690568  0.83055603  0.12783189     0.13770
C1318       C  0.23345069  0.85820996  0.14501074    -0.20590
C1319       C  0.22575121  0.88597280  0.13358563    -0.07100
C1320       C  0.21115554  0.88583128  0.10386413     0.13760
C1321       C  0.20335154  0.91472111  0.08940106    -0.23940
H1322       H  0.19439665  0.85863680  0.06365893     0.15050
H1323       H  0.24444216  0.85813711  0.16776020     0.15070
C1324       C  0.23473065  0.80174018  0.14237324    -0.23880
H1325       H  0.19405901  0.91049450  0.06531206     0.05290
H1326       H  0.22519546  0.92906590  0.08802339     0.08510
H1327       H  0.18468005  0.92699385  0.10356276     0.08510
H1328       H  0.25399876  0.78985564  0.12880169     0.08500
H1329       H  0.21310287  0.78704331  0.14303514     0.08500
H1330       H  0.24326258  0.80603171  0.16673453     0.05270
C1331       C  0.27304726  0.66765450  0.31129254    -0.20530
C1332       C  0.27578784  0.63852756  0.32139939    -0.07100
C1333       C  0.28728673  0.63530737  0.35204308     0.13770
C1334       C  0.29593836  0.66106440  0.37138730    -0.20590
C1335       C  0.29334726  0.69024702  0.36127576    -0.07100
C1336       C  0.28182348  0.69343112  0.33059641     0.13760
C1337       C  0.27941913  0.72392467  0.31757212    -0.23940
H1338       H  0.26445199  0.67024127  0.28789821     0.15050
H1339       H  0.30396133  0.65835545  0.39494239     0.15070
C1340       C  0.28926042  0.60483713  0.36519101    -0.23880
H1341       H  0.27243245  0.72203531  0.29258806     0.05290
H1342       H  0.30288274  0.73584385  0.31922565     0.08510
H1343       H  0.26103468  0.73757269  0.33059405     0.08510
H1344       H  0.30748313  0.59098213  0.35211691     0.08500
H1345       H  0.26562402  0.59320424  0.36362095     0.08500
H1346       H  0.29624981  0.60669379  0.39017640     0.05270
C1347       C  0.12784383  0.75180271  0.36358598    -0.20530
C1348       C  0.15316978  0.73152894  0.36332559    -0.07100
C1349       C  0.16090085  0.71408509  0.33550386     0.13770
C1350       C  0.14384234  0.71811849  0.30821799    -0.20590
C1351       C  0.11992931  0.73975952  0.30796833    -0.07100
C1352       C  0.11107731  0.75618748  0.33613943     0.13760
C1353       C  0.08386545  0.77805666  0.33743727    -0.23940
H1354       H  0.12224106  0.76532670  0.38489261     0.15050
H1355       H  0.14966522  0.70480963  0.28677704     0.15070
C1356       C  0.18726370  0.69130096  0.33458497    -0.23880
H1357       H  0.07952245  0.78808441  0.36158589     0.05290
H1358       H  0.06160880  0.76625062  0.32935544     0.08510
H1359       H  0.08937546  0.79674137  0.32230669     0.08510
H1360       H  0.18214718  0.67453368  0.35207356     0.08500
H1361       H  0.21047057  0.70264936  0.33999455     0.08500
H1362       H  0.18959951  0.67903299  0.31119221     0.05270
C1363       C  0.35449678  0.81219265  0.11966826    -0.20530
C1364       C  0.35432217  0.78591082  0.09969180    -0.07100
C1365       C  0.36893542  0.75972729  0.10927279     0.13770
C1366       C  0.38284341  0.76030520  0.13892567    -0.20590
C1367       C  0.38230094  0.78636078  0.15942766    -0.07100
C1368       C  0.36845391  0.81284509  0.14938621     0.13760
C1369       C  0.36695566  0.84145667  0.17036106    -0.23940
H1370       H  0.34238960  0.83190634  0.11252400     0.15050
H1371       H  0.39401499  0.74016112  0.14615358     0.15070
C1372       C  0.36913915  0.73089990  0.08852939    -0.23880
H1373       H  0.35379016  0.85935236  0.15934070     0.05290
H1374       H  0.39140326  0.85026370  0.17532348     0.08510
H1375       H  0.35453399  0.83700357  0.19267172     0.08510
H1376       H  0.38107180  0.73503602  0.06593461     0.08500
H1377       H  0.34435983  0.72268327  0.08408331     0.08500
H1378       H  0.38217252  0.71277258  0.09930286     0.05270
C1379       C  0.42180784  0.64576139  0.52192095    -0.20530
C1380       C  0.41487517  0.61735283  0.03282888    -0.07100
C1381       C  0.38292132  0.61019921  0.54036428     0.13770
C1382       C  0.35830676  0.63012406  0.53364888    -0.20590
C1383       C  0.36494948  0.65696900  0.51898458    -0.07100
C1384       C  0.39752835  0.66544303  0.51453132     0.13760
C1385       C  0.40748035  0.69462244  0.50102000    -0.23940
H1386       H  0.44634342  0.65110599  0.01592402     0.15050
H1387       H  0.33367867  0.62373452  0.53809031     0.15070
C1388       C  0.37462421  0.58046468  0.05336729    -0.23880
H1389       H  0.43380235  0.69806977  0.50124511     0.05290
H1390       H  0.39676580  0.71395293  0.51496864     0.08510
H1391       H  0.40000670  0.69450313  0.47626736     0.08510
H1392       H  0.38788250  0.57832706  0.07533968     0.08500
H1393       H  0.38102933  0.56166753  0.53627813     0.08500
H1394       H  0.34892004  0.57885554  0.55899534     0.05270
C1395       C  0.14494818  0.88193713  0.42640807    -0.20530
C1396       C  0.14006338  0.85359624  0.43807877    -0.07100
C1397       C  0.10878005  0.84072327  0.43691034     0.13770
C1398       C  0.08320170  0.85761900  0.42667492    -0.20590
C1399       C  0.08755401  0.88739622  0.41843582    -0.07100
C1400       C  0.11908623  0.89910979  0.41745716     0.13760
C1401       C  0.12520441  0.93069984  0.40944221    -0.23940
H1402       H  0.16883883  0.89167356  0.42653331     0.15050
H1403       H  0.05907110  0.84860026  0.42813342     0.15070
C1404       C  0.10169638  0.80954458  0.44707533    -0.23880
H1405       H  0.15112053  0.93636589  0.40864038     0.05290
H1406       H  0.11353008  0.94641111  0.42717758     0.08510
H1407       H  0.11499035  0.93335059  0.38616296     0.08510
H1408       H  0.10517847  0.80903392  0.97262142     0.08500
H1409       H  0.11765616  0.79304825  0.43436644     0.08500
H1410       H  0.07664942  0.80236907  0.44213104     0.05270
C1411       C  0.13152687  0.49394853  0.38881775    -0.20530
C1412       C  0.14168150  0.50799617  0.41752961    -0.07100
C1413       C  0.17404630  0.51691459  0.42049953     0.13770
C1414       C  0.19483003  0.51317376  0.39409212    -0.20590
C1415       C  0.18368295  0.00039866  0.36504416    -0.07100
C1416       C  0.15214640  0.48891983  0.36326693     0.13760
C1417       C  0.13893882  0.47235897  0.33402212    -0.23940
H1418       H  0.10676650  0.48688950  0.38602237     0.15050
H1419       H  0.21896294  0.02225422  0.39533452     0.15070
C1420       C  0.18591387  0.53215437  0.45063469    -0.23880
H1421       H  0.12838632  0.45039418  0.33962466     0.05290
H1422       H  0.15745104  0.96708366  0.31574989     0.08510
H1423       H  0.12002793  0.48594988  0.32409815     0.08510
H1424       H  0.18246474  0.51684482  0.46982166     0.08500
H1425       H  0.17242595  0.55316066  0.45642353     0.08500
H1426       H  0.21170464  0.53810802  0.44901773     0.05270
C1427       C  0.31909878  0.97423761  0.07234867    -0.20530
C1428       C  0.30612544  0.50322343  0.07648517    -0.07100
C1429       C  0.30844707  0.02222062  0.05148694     0.13770
C1430       C  0.32867563  0.01412429  0.02555064    -0.20590
C1431       C  0.34541799  0.98678023  0.02382981    -0.07100
C1432       C  0.33826533  0.96565789  0.04625102     0.13760
C1433       C  0.35198709  0.93437220  0.04352848    -0.23940
H1434       H  0.31583163  0.95885391  0.09071733     0.15050
H1435       H  0.33330455  0.03014685  0.00806781     0.15070
C1436       C  0.29035090  0.55134646  0.05298606    -0.23880
H1437       H  0.34246729  0.92041332  0.06215357     0.05290
H1438       H  0.37833351  0.93516835  0.04564732     0.08510
H1439       H  0.34550078  0.92295516  0.02060164     0.08510
H1440       H  0.29709861  0.56575108  0.07413396     0.08500
H1441       H  0.26445966  0.04642294  0.05414402     0.08500
H1442       H  0.29541208  0.06411362  0.03200813     0.05270
C1443       C  0.02438872  0.86471825  0.10824728    -0.20530
C1444       C  0.99623884  0.85225636  0.12014833    -0.07100
C1445       C  0.46700830  0.85646106  0.10500938     0.13770
C1446       C  0.46621861  0.87591311  0.08067667    -0.20590
C1447       C  0.99410949  0.88992039  0.06993083    -0.07100
C1448       C  0.02386225  0.88340617  0.08328012     0.13760
C1449       C  0.05506693  0.89712312  0.07281456    -0.23940
H1450       H  0.04686043  0.86091119  0.11949460     0.15050
H1451       H  0.44360494  0.88010298  0.06985485     0.15070
C1452       C  0.43644885  0.84022864  0.11293505    -0.23880
H1453       H  0.07546781  0.89026745  0.08687857     0.05290
H1454       H  0.05388076  0.92208631  0.07548244     0.08510
H1455       H  0.06027256  0.88952535  0.04805693     0.08510
H1456       H  0.41865246  0.85678256  0.12249139     0.08500
H1457       H  0.43975681  0.82286702  0.12983439     0.08500
H1458       H  0.42671721  0.82833996  0.09138523     0.05270
C1459       C  0.49302366  0.64140418  0.39118019    -0.20530
C1460       C  0.50006483  0.61196694  0.37917547    -0.07100
C1461       C  0.50314800  0.60599420  0.34637490     0.13770
C1462       C  0.50140079  0.62985144  0.32678737    -0.20590
C1463       C  0.49581171  0.65944624  0.33883091    -0.07100
C1464       C  0.49087884  0.66526415  0.37133444     0.13760
C1465       C  0.48438801  0.69667780  0.38509703    -0.23940
H1466       H  0.48967564  0.64580632  0.41621358     0.15050
H1467       H  0.00431171  0.62534066  0.30175807     0.15070
C1468       C  0.00672867  0.57451306  0.33162857    -0.23880
H1469       H  0.48165172  0.69742026  0.41096780     0.05290
H1470       H  0.46199172  0.70496828  0.37536782     0.08510
H1471       H  0.50449413  0.71196451  0.37932255     0.08510
H1472       H  0.48753117  0.55959274  0.33993509     0.08500
H1473       H  0.03030675  0.56550071  0.33721253     0.08500
H1474       H  0.00530385  0.57388305  0.30571574     0.05270
C1475       C  0.13972595  0.63905860  0.14182107    -0.20530
C1476       C  0.15377372  0.64300603  0.11217045    -0.07100
C1477       C  0.18736478  0.64933510  0.11181211     0.13770
C1478       C  0.20572180  0.63884911  0.13584647    -0.20590
C1479       C  0.19097051  0.62670893  0.16174757    -0.07100
C1480       C  0.15794568  0.63079881  0.16676897     0.13760
C1481       C  0.14104686  0.62260860  0.19638503    -0.23940
H1482       H  0.11412233  0.63878881  0.14458285     0.15050
H1483       H  0.23153251  0.63852364  0.13348217     0.15070
C1484       C  0.20493186  0.66731764  0.08820943    -0.23880
H1485       H  0.11532927  0.62836898  0.19635100     0.05290
H1486       H  0.15204360  0.63523012  0.21687231     0.08510
H1487       H  0.14250971  0.59801478  0.19888540     0.08510
H1488       H  0.18919587  0.67729556  0.07141689     0.08500
H1489       H  0.22294412  0.65306232  0.07523823     0.08500
H1490       H  0.21770939  0.68649172  0.10075083     0.05270
C1491       C  0.11776264  0.69348285  0.09115587    -0.20530
C1492       C  0.10616117  0.66344823  0.09008785    -0.07100
C1493       C  0.07280809  0.65905828  0.09756819     0.13770
C1494       C  0.05292032  0.68382559  0.09866726    -0.20590
C1495       C  0.06590203  0.71197105  0.10757796    -0.07100
C1496       C  0.09842245  0.71775471  0.10096571     0.13760
C1497       C  0.11348486  0.74867166  0.10552990    -0.23940
H1498       H  0.14265504  0.69784480  0.08612641     0.15050
H1499       H  0.02754624  0.68017731  0.10295449     0.15070
C1500       C  0.05714436  0.63201000  0.11163852    -0.23880
H1501       H  0.13821160  0.74913081  0.09579578     0.05290
H1502       H  0.11509498  0.75569438  0.13080318     0.08510
H1503       H  0.09935403  0.76504974  0.09327108     0.08510
H1504       H  0.07357565  0.61528080  0.11966086     0.08500
H1505       H  0.03947882  0.62123587  0.09518837     0.08500
H1506       H  0.04387608  0.63958838  0.13338764     0.05270
C1507       C  0.14825584  0.64200101  0.99425839    -0.20530
C1508       C  0.18089501  0.63645441  0.49381687    -0.07100
C1509       C  0.19159628  0.61863386  0.51694093     0.13770
C1510       C  0.17448136  0.61961765  0.04534729    -0.20590
C1511       C  0.14826146  0.63943351  0.05094371    -0.07100
C1512       C  0.13453023  0.65098012  0.02341311     0.13760
C1513       C  0.10818154  0.67403073  0.02263140    -0.23940
H1514       H  0.13791862  0.64953240  0.97315928     0.15050
H1515       H  0.18303900  0.60644668  0.06352295     0.15070
C1516       C  0.22210460  0.60137102  0.51255590    -0.23880
H1517       H  0.10120252  0.67780391  0.99831294     0.05290
H1518       H  0.11706119  0.69621477  0.03243170     0.08510
H1519       H  0.08579694  0.66760699  0.03446589     0.08510
H1520       H  0.24248113  0.61685721  0.50836343     0.08500
H1521       H  0.21988699  0.58475979  0.49211086     0.08500
H1522       H  0.22743620  0.58899969  0.53346189     0.05270
C1523       C  0.09159810  0.60341801  0.05716977    -0.20530
C1524       C  0.11545524  0.60684043  0.08008836    -0.07100
C1525       C  0.12165201  0.58115773  0.09740080     0.13770
C1526       C  0.09884033  0.55793593  0.09723048    -0.20590
C1527       C  0.07283184  0.55770121  0.07741435    -0.07100
C1528       C  0.07025368  0.57966038  0.05554031     0.13760
C1529       C  0.04507522  0.57890725  0.03037564    -0.23940
H1530       H  0.08745112  0.62078373  0.04181859     0.15050
H1531       H  0.10261849  0.53866994  0.11089185     0.15070
C1532       C  0.15228279  0.57436766  0.11318156    -0.23880
H1533       H  0.04763379  0.59811534  0.01525867     0.05290
H1534       H  0.52081278  0.58042005  0.04095713     0.08510
H1535       H  0.04712794  0.55811514  0.01469633     0.08510
H1536       H  0.14792459  0.57331798  0.13868879     0.08500
H1537       H  0.17192023  0.59004464  0.10886327     0.08500
H1538       H  0.16096803  0.55199257  0.10382019     0.05270
C1539       C  0.40558456  0.90119917  0.34448740    -0.20530
C1540       C  0.37409613  0.90898651  0.35430588    -0.07100
C1541       C  0.36581148  0.94001331  0.35325004     0.13770
C1542       C  0.39009666  0.96135864  0.34980139    -0.20590
C1543       C  0.42201546  0.95294678  0.34973525    -0.07100
C1544       C  0.42968551  0.92274462  0.34216358     0.13760
C1545       C  0.46322542  0.91237178  0.33472698    -0.23940
H1546       H  0.41290219  0.87829695  0.34068004     0.15050
H1547       H  0.38452354  0.98514589  0.35253022     0.15070
C1548       C  0.33242851  0.95197587  0.35750901    -0.23880
H1549       H  0.46338076  0.88898001  0.32380037     0.05290
H1550       H  0.47728224  0.91234735  0.35645900     0.08510
H1551       H  0.47474964  0.92704312  0.31779177     0.08510
H1552       H  0.32125753  0.94600865  0.37979437     0.08500
H1553       H  0.33187439  0.97694177  0.35777620     0.08500
H1554       H  0.31812864  0.94367781  0.33736257     0.05270
C1555       C  0.30463698  0.88999294  0.40740590    -0.20530
C1556       C  0.33665855  0.89552807  0.39849741    -0.07100
C1557       C  0.35709126  0.90417832  0.42475581     0.13770
C1558       C  0.34838708  0.89340698  0.45418254    -0.20590
C1559       C  0.31633092  0.88546551  0.45940940    -0.07100
C1560       C  0.29504872  0.89657310  0.43822969     0.13760
C1561       C  0.26033254  0.90162768  0.44620352    -0.23940
H1562       H  0.28851925  0.87565723  0.39356715     0.15050
H1563       H  0.36580714  0.89165102  0.47237401     0.15070
C1564       C  0.38472566  0.92641748  0.42378835    -0.23880
H1565       H  0.25388571  0.92463260  0.44028036     0.05290
H1566       H  0.25561122  0.89973017  0.47157607     0.08510
H1567       H  0.24496803  0.88515959  0.43257009     0.08510
H1568       H  0.37557357  0.94841531  0.41747797     0.08500
H1569       H  0.40404048  0.91952318  0.40719442     0.08500
H1570       H  0.39579215  0.93026674  0.44717408     0.05270
C1571       C  0.29409704  0.89148331  0.33899402    -0.20530
C1572       C  0.32634072  0.88177930  0.33622412    -0.07100
C1573       C  0.33730693  0.87444405  0.30425902     0.13770
C1574       C  0.31931032  0.88348919  0.27922497    -0.20590
C1575       C  0.28993881  0.89700401  0.28458165    -0.07100
C1576       C  0.27479898  0.89408816  0.31328690     0.13760
C1577       C  0.23942846  0.89953403  0.31761493    -0.23940
H1578       H  0.28447766  0.90361549  0.35921235     0.15050
H1579       H  0.33006942  0.88345077  0.25601425     0.15070
C1580       C  0.36865439  0.86056454  0.29377496    -0.23880
H1581       H  0.23168618  0.89731228  0.34227568     0.05290
H1582       H  0.22603346  0.88244457  0.30266796     0.08510
H1583       H  0.23268966  0.92218748  0.31102258     0.08510
H1584       H  0.38238691  0.85145998  0.31206755     0.08500
H1585       H  0.38379202  0.87741897  0.28229779     0.08500
H1586       H  0.36402024  0.84124604  0.27649299     0.05270
C1587       C  0.39472204  0.85393026  0.38828707    -0.20530
C1588       C  0.36614185  0.85401040  0.37078015    -0.07100
C1589       C  0.35701479  0.82560835  0.35609354     0.13770
C1590       C  0.38136451  0.80532151  0.34693554    -0.20590
C1591       C  0.41322569  0.81232511  0.35496929    -0.07100
C1592       C  0.41924248  0.83429058  0.37907818     0.13760
C1593       C  0.45191110  0.83955773  0.39291303    -0.23940
H1594       H  0.40131603  0.87189091  0.40460690     0.15050
H1595       H  0.37586876  0.78604311  0.33094778     0.15070
C1596       C  0.32306693  0.81653184  0.34876410    -0.23880
H1597       H  0.46101007  0.86225023  0.38766028     0.05290
H1598       H  0.46935075  0.82251899  0.38364215     0.08510
H1599       H  0.45030619  0.83832526  0.41868378     0.08510
H1600       H  0.31967131  0.81426725  0.32304401     0.08500
H1601       H  0.30579316  0.83272781  0.35980494     0.08500
H1602       H  0.31766874  0.79444492  0.35836819     0.05270
C1603       C  0.34998568  0.88467317  0.86499597    -0.02720
C1604       C  0.13145213  0.63840278  0.58338366    -0.02720
C1605       C  0.05986385  0.90778372  0.92421418     0.42230
N1606       N  0.03819764  0.95209352  0.92827156     0.01120
C1607       C  0.01971445  0.53112687  0.57097864    -0.06760
H1608       H  0.44796711  0.94119294  0.56347998     0.06610
C1609       C  0.38617546  0.99773011  0.97661125    -0.07110
Co1610     Co  0.04090815  0.97311330  0.99461756     0.74180
N1611       N  0.48160552  0.95793501  0.53002868    -0.26290
Co1612     Co  0.46940871  0.00273703  0.52526677     0.74070
C1613       C  0.37581539  0.98380877  0.00551935     0.42330
N1614       N  0.45377174  0.99513350  0.91404634     0.00740
N1615       N  0.42700055  0.98993154  0.50467246     0.00480
N1616       N  0.06482142  0.51113271  0.54962189    -0.47130
H1617       H  0.06043343  0.90562052  0.97702104     0.06600
N1618       N  0.00834228  0.94678133  0.51766907     0.01130
N1619       N  0.45688100  0.54832296  0.51935521     0.00870
C1620       C  0.43834022  0.59357363  0.52395531     0.42470
N1621       N  0.48131371  0.98486269  0.90267794    -0.25740
C1622       C  0.10692488  0.50088897  0.96906798    -0.06660
N1623       N  0.05137084  0.93171860  0.90774865    -0.46850
N1624       N  0.44716275  0.56991471  0.54042795    -0.47070
C1625       C  0.11611587  0.51707431  0.94099888     0.42240
N1626       N  0.03962554  0.50240532  0.53339409     0.01110
N1627       N  0.51046285  0.54190737  0.91742955    -0.25760
N1628       N  0.04050164  0.94347832  0.95684295    -0.26260
N1629       N  0.48310571  0.55257355  0.92860204     0.00750
H1630       H  0.54624405  0.55953430  0.88678632     0.06640
H1631       H  0.43312166  0.59477078  0.97104015     0.06680
N1632       N  0.01286682  0.51396963  0.54514678    -0.26310
N1633       N  0.41841603  0.00011213  0.97801364    -0.25920
N1634       N  0.06486644  0.51272610  0.94512409     0.01120
C1635       C  0.99095815  0.91239898  0.54640424     0.42520
C1636       C  0.47665119  0.97031520  0.87481699    -0.07170
N1637       N  0.45215523  0.55596923  0.99051808    -0.25920
H1638       H  0.37157639  0.00768461  0.95956915     0.06660
N1639       N  0.01484895  0.91995499  0.52704742    -0.47140
H1640       H  0.49543461  0.96190698  0.85916925     0.06650
C1641       C  0.50165303  0.58745113  0.90087169     0.42350
C1642       C  0.05210828  0.91591519  0.95653832    -0.06670
Co1643     Co  0.02406414  0.49791641  0.92317151     0.73820
N1644       N  0.42998676  0.98817004  0.89509992    -0.46860
C1645       C  0.05445068  0.53033703  0.57297719     0.42620
N1646       N  0.08818926  0.52424896  0.92875850    -0.46850
Co1647     Co  0.45146019  0.52574604  0.95247159     0.73890
C1648       C  0.44180256  0.58401886  0.99109116    -0.07170
C1649       C  0.46861021  0.93756644  0.54830068    -0.06740
N1650       N  0.07455289  0.49955829  0.96979711    -0.26260
N1651       N  0.40276718  0.98023777  0.52127296    -0.47030
H1652       H  0.50268959  0.54408652  0.58539425     0.06620
C1653       C  0.52420322  0.56252731  0.89998022    -0.07150
Cl1654     Cl  0.49616715  0.49968716  0.97376603    -0.50150
C1655       C  0.44246768  0.97244886  0.86983318     0.42380
H1656       H  0.12221694  0.48855819  0.98361348     0.06590
N1657       N  0.47675881  0.57949771  0.91899951    -0.46860
C1658       C  0.19983937  0.66404508  0.98910696     0.42230
N1659       N  0.22298347  0.70385015  0.01034180     0.01120
C1660       C  0.20001114  0.83535203  0.93769619    -0.06760
H1661       H  0.21843869  0.75615676  0.86723363     0.06610
C1662       C  0.31774250  0.71902348  0.91337103    -0.07110
Co1663     Co  0.19570993  0.75888879  0.98425532     0.74180
N1664       N  0.21434014  0.75547550  0.91719254    -0.26290
Co1665     Co  0.24982484  0.78414426  0.93385738     0.74070
C1666       C  0.29951933  0.71692126  0.88391151     0.42330
N1667       N  0.31507440  0.71396850  0.99079641     0.00740
N1668       N  0.28383391  0.75498128  0.91416731     0.00840
N1669       N  0.16524558  0.81755256  0.97268293    -0.47130
H1670       H  0.16660864  0.69276153  0.96150497     0.06600
N1671       N  0.19187152  0.74617433  0.93613382     0.01130
N1672       N  0.28426087  0.81217900  0.95302213     0.00870
C1673       C  0.30753685  0.85431651  0.96706474     0.42470
N1674       N  0.29420511  0.70408921  0.01119108    -0.25740
C1675       C  0.18946050  0.79794954  0.54787669    -0.06660
N1676       N  0.22312799  0.67405210  0.00902526    -0.46850
N1677       N  0.28209003  0.84133005  0.95264504    -0.47070
C1678       C  0.20756360  0.80179141  0.57717988     0.42240
N1679       N  0.19253836  0.80290263  0.97238203     0.01110
N1680       N  0.29370745  0.76138968  0.54554459    -0.25760
N1681       N  0.20054647  0.71425587  0.99297826    -0.26260
N1682       N  0.31601823  0.77137406  0.52664330     0.00750
H1683       H  0.28945210  0.76053324  0.59543913     0.06640
H1684       H  0.34802434  0.82978946  0.99077158     0.06680
N1685       N  0.21322632  0.81248368  0.95171332    -0.26310
N1686       N  0.30646272  0.74339687  0.93057010    -0.25920
N1687       N  0.22392580  0.76245987  0.54887802     0.01120
C1688       C  0.17533378  0.73354897  0.88974244     0.42520
C1689       C  0.30614556  0.67942600  0.02314160    -0.07170
N1690       N  0.30949200  0.80379363  0.96799923    -0.25920
H1691       H  0.33442415  0.70309938  0.92153710     0.06660
N1692       N  0.16713451  0.73397469  0.92052903    -0.47140
H1693       H  0.29630920  0.66884296  0.04319142     0.06650
C1694       C  0.33211090  0.78401670  0.57324705     0.42350
C1695       C  0.18550325  0.69105172  0.97815434    -0.06670
Co1696     Co  0.25790507  0.73235255  0.52956517     0.73820
N1697       N  0.34125389  0.69762512  0.98870071    -0.46860
C1698       C  0.16790135  0.83851240  0.95152200     0.42620
N1699       N  0.22835030  0.77884261  0.57558503    -0.46850
Co1700     Co  0.31302980  0.75840828  0.97828590     0.73890
C1701       C  0.32649478  0.82903326  0.97709047    -0.07170
C1702       C  0.20620207  0.74841626  0.88762377    -0.06740
N1703       N  0.20141432  0.77335824  0.53181445    -0.26260
N1704       N  0.27915584  0.73998549  0.88683354    -0.47030
H1705       H  0.20899757  0.84428773  0.91639550     0.06620
C1706       C  0.30160433  0.76855081  0.57514085    -0.07150
Cl1707     Cl  0.25425111  0.75849916  0.98160880    -0.50150
C1708       C  0.33781258  0.67533054  0.00837275     0.42380
H1709       H  0.17273181  0.81322699  0.53866295     0.06590
N1710       N  0.34032911  0.78420197  0.54246232    -0.46860
C1711       C  0.10272080  0.74245271  0.77861264     0.42230
N1712       N  0.06459422  0.73381799  0.74629445     0.01120
C1713       C  0.47667201  0.83981481  0.67657257    -0.06760
H1714       H  0.00653356  0.88183656  0.77255122     0.06610
C1715       C  0.43915065  0.77155259  0.81931717    -0.07110
Co1716     Co  0.04687906  0.78875139  0.71423207     0.74180
N1717       N  0.01954456  0.83639028  0.75819204    -0.26290
Co1718     Co  0.47568491  0.81524671  0.74316330     0.74070
C1719       C  0.43891875  0.80178699  0.83363603     0.42330
N1720       N  0.48045864  0.71370968  0.78369910     0.00740
N1721       N  0.46062716  0.80241821  0.78769688     0.00840
N1722       N  0.02386746  0.82136586  0.65793361    -0.47130
H1723       H  0.10805350  0.79174666  0.76584013     0.06600
N1724       N  0.04689046  0.82480654  0.74787592     0.01130
N1725       N  0.43407343  0.79526295  0.72445622     0.00870
C1726       C  0.39716228  0.78543309  0.69058856     0.42470
N1727       N  0.50791639  0.70386596  0.77195051    -0.25740
C1728       C  0.05500711  0.75641000  0.64949436    -0.06660
N1729       N  0.08153710  0.72147707  0.76770098    -0.46850
N1730       N  0.41762017  0.80686737  0.70217109    -0.47070
C1731       C  0.05003296  0.72622337  0.63527350     0.42240
N1732       N  0.01813990  0.81405561  0.68693684     0.01110
N1733       N  0.47996806  0.69383161  0.71144697    -0.25760
N1734       N  0.07310383  0.76210561  0.74263155    -0.26260
N1735       N  0.45261819  0.70489227  0.72199759     0.00750
H1736       H  0.49319156  0.65001263  0.69203275     0.06640
H1737       H  0.39278272  0.73627838  0.70388579     0.06680
N1738       N  0.49066164  0.82446101  0.69831521    -0.26310
N1739       N  0.45209100  0.77410550  0.79110713    -0.25920
N1740       N  0.03669529  0.72695581  0.68388506     0.01120
C1741       C  0.05977191  0.87168203  0.76082253     0.42520
C1742       C  0.02038220  0.68478997  0.79102778    -0.07170
N1743       N  0.42606637  0.76686979  0.72806744    -0.25920
H1744       H  0.42784793  0.75140652  0.82729317     0.06660
N1745       N  0.07075575  0.84475409  0.74916205    -0.47140
H1746       H  0.04174741  0.67176825  0.78640942     0.06650
C1747       C  0.43973235  0.65951605  0.70380227     0.42350
C1748       C  0.09719880  0.76960145  0.76218005    -0.06670
Co1749     Co  0.02291781  0.71434894  0.72772254     0.73820
N1750       N  0.47273943  0.70157770  0.81032072    -0.46860
C1751       C  0.99830618  0.83691009  0.64950056     0.42620
N1752       N  0.03871900  0.70919174  0.65808939    -0.46850
Co1753     Co  0.45226378  0.74013705  0.75637951     0.73890
C1754       C  0.40274731  0.75875509  0.70783708    -0.07170
C1755       C  0.02523231  0.86581765  0.76715415    -0.06740
N1756       N  0.04642791  0.75461607  0.67947101    -0.26260
N1757       N  0.45226038  0.82000094  0.81263473    -0.47030
H1758       H  0.45421067  0.85142350  0.67934168     0.06620
C1759       C  0.47442288  0.66544738  0.69913414    -0.07150
Cl1760     Cl  0.49949801  0.76480573  0.73577676    -0.50150
C1761       C  0.49725697  0.68351651  0.81670836     0.42380
H1762       H  0.06384265  0.77646117  0.63923069     0.06590
N1763       N  0.42860100  0.68540879  0.71805343    -0.46860
C1764       C  0.20084483  0.00600093  0.83550241     0.42230
N1765       N  0.23609170  0.01250338  0.79964771     0.01120
C1766       C  0.21428747  0.57353183  0.65907874    -0.06760
H1767       H  0.15930214  0.95746830  0.67883281     0.06610
C1768       C  0.26291513  0.92256653  0.66995312    -0.07110
Co1769     Co  0.20736738  0.54506017  0.74874332     0.74180
N1770       N  0.18033397  0.99757907  0.70201980    -0.26290
Co1771     Co  0.22123837  0.00688596  0.67473534     0.74070
C1772       C  0.23343863  0.91443139  0.65287022     0.42330
N1773       N  0.29331485  0.96072986  0.73986529     0.00740
N1774       N  0.23213563  0.96114675  0.67008758     0.00840
N1775       N  0.20352690  0.59658685  0.70649755    -0.47130
H1776       H  0.16180811  0.02757200  0.80780371     0.06600
N1777       N  0.17469648  0.01186695  0.72959626     0.01130
N1778       N  0.26318669  0.51412867  0.64837311     0.00870
C1779       C  0.29580011  0.51361496  0.60876070     0.42470
N1780       N  0.28638968  0.97453268  0.76732351    -0.25740
C1781       C  0.23874418  0.60539621  0.78083126    -0.06660
N1782       N  0.23234564  0.00291662  0.82829590    -0.46850
N1783       N  0.26493958  0.51795583  0.61784406    -0.47070
C1784       C  0.26787835  0.61188369  0.79928156     0.42240
N1785       N  0.20750814  0.56730745  0.70808021     0.01110
N1786       N  0.31966372  0.52959429  0.74816984    -0.25760
N1787       N  0.20922607  0.02246093  0.78880532    -0.26260
N1788       N  0.32529018  0.51683142  0.71988527     0.00750
H1789       H  0.34119042  0.56752437  0.77446671     0.06640
H1790       H  0.33628845  0.49622069  0.63773019     0.06680
N1791       N  0.21318899  0.55312242  0.68052354    -0.26310
N1792       N  0.26007532  0.95200962  0.67937593    -0.25920
N1793       N  0.26843623  0.56605044  0.77944434     0.01120
C1794       C  0.13957235  0.97525738  0.72678303     0.42520
C1795       C  0.28119706  0.95393906  0.78783610    -0.07170
N1796       N  0.29078868  0.50596112  0.65933191    -0.25920
H1797       H  0.28396217  0.90919830  0.67248069     0.06660
N1798       N  0.15108327  0.99886453  0.74524545    -0.47140
H1799       H  0.27388733  0.95864601  0.81193594     0.06650
C1800       C  0.36043379  0.55302407  0.72543213     0.42350
C1801       C  0.18587995  0.01946184  0.80968603    -0.06670
Co1802     Co  0.27848452  0.52040345  0.77429844     0.73820
N1803       N  0.29364332  0.93100100  0.74059669    -0.46860
C1804       C  0.20761071  0.60235551  0.67623220     0.42620
N1805       N  0.28467311  0.58625134  0.79722022    -0.46850
Co1806     Co  0.29332093  0.98377457  0.69969435     0.73890
C1807       C  0.31279959  0.50583597  0.63649563    -0.07170
C1808       C  0.15924903  0.97444267  0.69815270    -0.06740
N1809       N  0.24111853  0.57626597  0.76972709    -0.26260
N1810       N  0.21585266  0.93969067  0.65390755    -0.47030
H1811       H  0.21864998  0.56871932  0.63430494     0.06620
C1812       C  0.34103878  0.55199310  0.75391518    -0.07150
Cl1813     Cl  0.25014361  0.01400131  0.72424814    -0.50150
C1814       C  0.28524310  0.92514472  0.77004249     0.42380
H1815       H  0.21791635  0.61923468  0.77908913     0.06590
N1816       N  0.34907196  0.53060904  0.70526893    -0.46860
C1817       C  0.41250626  0.57588897  0.70836416    -0.20530
C1818       C  0.38006683  0.57952170  0.71627815    -0.07100
C1819       C  0.36717830  0.60876388  0.71665531     0.13770
C1820       C  0.38718980  0.63347197  0.71061782    -0.20590
C1821       C  0.42028794  0.63051513  0.70471705    -0.07100
C1822       C  0.43283746  0.60082765  0.70283451     0.13760
C1823       C  0.46752288  0.59482198  0.69591238    -0.23940
H1824       H  0.42229670  0.55343667  0.70768608     0.15050
H1825       H  0.37677941  0.65566788  0.71144132     0.15070
C1826       C  0.33213113  0.61424446  0.72308370    -0.23880
H1827       H  0.47272955  0.57035841  0.69475154     0.05290
H1828       H  0.48236229  0.60582199  0.71480359     0.08510
H1829       H  0.47424141  0.60314800  0.67286150     0.08510
H1830       H  0.32588504  0.60972754  0.74754246     0.08500
H1831       H  0.31750398  0.59949194  0.70673389     0.08500
H1832       H  0.32570073  0.63796795  0.71997473     0.05270
C1833       C  0.11253717  0.89829671  0.75431467    -0.20530
C1834       C  0.07889172  0.90049355  0.75592747    -0.07100
C1835       C  0.06563365  0.92868681  0.74940786     0.13770
C1836       C  0.08593721  0.95279816  0.74089174    -0.20590
C1837       C  0.11927210  0.94985042  0.73819990    -0.07100
C1838       C  0.13263372  0.92225905  0.74558873     0.13760
C1839       C  0.16829581  0.91799438  0.74441258    -0.23940
H1840       H  0.12335871  0.87722382  0.75933031     0.15050
H1841       H  0.07558802  0.97396088  0.73545363     0.15070
C1842       C  0.03020468  0.93364872  0.75027056    -0.23880
H1843       H  0.17498294  0.89553255  0.75182861     0.05290
H1844       H  0.18009065  0.93542680  0.76030808     0.08510
H1845       H  0.17749357  0.91986126  0.72019374     0.08510
H1846       H  0.02086719  0.93146710  0.77437229     0.08500
H1847       H  0.01823009  0.91717937  0.73346765     0.08500
H1848       H  0.02415834  0.95655664  0.74364367     0.05270
C1849       C  0.20477490  0.85811890  0.58659024    -0.20530
C1850       C  0.21258053  0.83024523  0.59787269    -0.07100
C1851       C  0.22679810  0.83043367  0.62785217     0.13770
C1852       C  0.23336284  0.85808595  0.64502287    -0.20590
C1853       C  0.22569710  0.88585001  0.63358156    -0.07100
C1854       C  0.21110997  0.88571366  0.60385746     0.13760
C1855       C  0.20333903  0.91460555  0.58938215    -0.23940
H1856       H  0.19434361  0.85852264  0.56365561     0.15050
H1857       H  0.24434575  0.85801157  0.66777629     0.15070
C1858       C  0.23458582  0.80161436  0.64240572    -0.23880
H1859       H  0.19404793  0.91037964  0.56529250     0.05290
H1860       H  0.22519747  0.92893038  0.58800290     0.08510
H1861       H  0.18467717  0.92689930  0.60353689     0.08510
H1862       H  0.25384765  0.78970739  0.62884622     0.08500
H1863       H  0.21294255  0.78693733  0.64306259     0.08500
H1864       H  0.24310924  0.80590501  0.66677009     0.05270
C1865       C  0.27312748  0.66763638  0.81124534    -0.20530
C1866       C  0.27591225  0.63850362  0.82132391    -0.07100
C1867       C  0.28741785  0.63527232  0.85196459     0.13770
C1868       C  0.29603199  0.66102552  0.87133118    -0.20590
C1869       C  0.29339647  0.69021371  0.86124707    -0.07100
C1870       C  0.28186665  0.69340873  0.83057185     0.13760
C1871       C  0.27941839  0.72391024  0.81757399    -0.23940
H1872       H  0.26452642  0.67023204  0.78785486     0.15050
H1873       H  0.30406180  0.65830785  0.89488227     0.15070
C1874       C  0.28943981  0.60479421  0.86508836    -0.23880
H1875       H  0.27243789  0.72203129  0.79258813     0.05290
H1876       H  0.30286430  0.73585986  0.81924248     0.08510
H1877       H  0.26101085  0.73752353  0.83060247     0.08510
H1878       H  0.30769046  0.59097603  0.85201089     0.08500
H1879       H  0.26582283  0.59312660  0.86350308     0.08500
H1880       H  0.29642090  0.60664286  0.89007613     0.05270
C1881       C  0.12782321  0.75178399  0.86358483    -0.20530
C1882       C  0.15314859  0.73151028  0.86334272    -0.07100
C1883       C  0.16087784  0.71404830  0.83553072     0.13770
C1884       C  0.14381953  0.71806368  0.80823868    -0.20590
C1885       C  0.11990791  0.73970485  0.80796997    -0.07100
C1886       C  0.11105786  0.75615136  0.83613146     0.13760
C1887       C  0.08384886  0.77802307  0.83741233    -0.23940
H1888       H  0.12221946  0.76532151  0.88488190     0.15050
H1889       H  0.14964329  0.70474131  0.78680656     0.15070
C1890       C  0.18723801  0.69126190  0.83462806    -0.23880
H1891       H  0.07950480  0.78806542  0.86155502     0.05290
H1892       H  0.06159156  0.76621486  0.82933573     0.08510
H1893       H  0.08936264  0.79669746  0.82226960     0.08510
H1894       H  0.18212065  0.67450909  0.85213141     0.08500
H1895       H  0.21044772  0.70261022  0.84002583     0.08500
H1896       H  0.18956971  0.67897661  0.81124381     0.05270
C1897       C  0.35445629  0.81217938  0.61968632    -0.20530
C1898       C  0.35426657  0.78590292  0.59970276    -0.07100
C1899       C  0.36888051  0.75971228  0.60926473     0.13770
C1900       C  0.38279813  0.76027580  0.63891098    -0.20590
C1901       C  0.38226557  0.78632387  0.65942305    -0.07100
C1902       C  0.36842391  0.81281744  0.64939782     0.13760
C1903       C  0.36693897  0.84142248  0.67038429    -0.23940
H1904       H  0.34235212  0.83189930  0.61255359     0.15050
H1905       H  0.39396889  0.74012620  0.64612590     0.15070
C1906       C  0.36907684  0.73089302  0.58850794    -0.23880
H1907       H  0.35377454  0.85932616  0.65937578     0.05290
H1908       H  0.39138999  0.85022228  0.67534262     0.08510
H1909       H  0.35452284  0.83696395  0.69269629     0.08510
H1910       H  0.38099836  0.73503981  0.56591076     0.08500
H1911       H  0.34429635  0.72267644  0.58406939     0.08500
H1912       H  0.38211723  0.71276080  0.59926585     0.05270
C1913       C  0.42175963  0.64566741  0.02183765    -0.20530
C1914       C  0.41492955  0.61745060  0.53292688    -0.07100
C1915       C  0.38286901  0.61011117  0.04028641     0.13770
C1916       C  0.35825811  0.63005224  0.03360215    -0.20590
C1917       C  0.36490453  0.65690533  0.01895372    -0.07100
C1918       C  0.39748474  0.66536828  0.01448567     0.13760
C1919       C  0.40744268  0.69455915  0.00100136    -0.23940
H1920       H  0.44639306  0.65120736  0.51602024     0.15050
H1921       H  0.33362975  0.62367148  0.03805602     0.15070
C1922       C  0.37467754  0.58055666  0.55345346    -0.23880
H1923       H  0.43376585  0.69799793  0.00122217     0.05290
H1924       H  0.39673832  0.71388128  0.01497233     0.08510
H1925       H  0.39996323  0.69446565  0.97625240     0.08510
H1926       H  0.38791608  0.57843524  0.57544040     0.08500
H1927       H  0.38095374  0.56158053  0.03617720     0.08500
H1928       H  0.34887154  0.57877039  0.05893413     0.05270
C1929       C  0.14499507  0.88194953  0.92637181    -0.20530
C1930       C  0.14011585  0.85360713  0.93803811    -0.07100
C1931       C  0.10883469  0.84072924  0.93687198     0.13770
C1932       C  0.08325141  0.85762286  0.92664411    -0.20590
C1933       C  0.08759790  0.88740268  0.91841249    -0.07100
C1934       C  0.11912822  0.89912083  0.91743210     0.13760
C1935       C  0.12523904  0.93071490  0.90943063    -0.23940
H1936       H  0.16888438  0.89168918  0.92649656     0.15050
H1937       H  0.05912250  0.84860047  0.92810457     0.15070
C1938       C  0.10175886  0.80954817  0.94703410    -0.23880
H1939       H  0.15115437  0.93638329  0.90862160     0.05290
H1940       H  0.11356892  0.94641862  0.92717598     0.08510
H1941       H  0.11501409  0.93337274  0.88615817     0.08510
H1942       H  0.10512107  0.80903030  0.47266200     0.08500
H1943       H  0.11772734  0.79305735  0.93432907     0.08500
H1944       H  0.07671524  0.80236547  0.94208367     0.05270
C1945       C  0.13139165  0.49454345  0.88883792    -0.20530
C1946       C  0.14167561  0.50838915  0.91760119    -0.07100
C1947       C  0.17411091  0.51704346  0.92059168     0.13770
C1948       C  0.19484857  0.51326505  0.89415665    -0.20590
C1949       C  0.18375055  0.00029112  0.86501909    -0.07100
C1950       C  0.15196037  0.48944026  0.86327049     0.13760
C1951       C  0.13862005  0.47302989  0.83399824    -0.23940
H1952       H  0.10659471  0.48760275  0.88604717     0.15050
H1953       H  0.21905199  0.02212004  0.89530414     0.15070
C1954       C  0.18611929  0.53203296  0.95078929    -0.23880
H1955       H  0.12778274  0.45117008  0.83955846     0.05290
H1956       H  0.15748242  0.96699199  0.81573227     0.08510
H1957       H  0.11989482  0.48682578  0.82406012     0.08510
H1958       H  0.18255227  0.51663567  0.96988187     0.08500
H1959       H  0.17281007  0.55311786  0.95671319     0.08500
H1960       H  0.21195564  0.53780409  0.94917927     0.05270
C1961       C  0.31915533  0.97417188  0.57225989    -0.20530
C1962       C  0.30639300  0.50294992  0.57661883    -0.07100
C1963       C  0.30844155  0.02216876  0.55145839     0.13770
C1964       C  0.32865945  0.01411408  0.52550182    -0.20590
C1965       C  0.34542852  0.98678469  0.52374237    -0.07100
C1966       C  0.33830896  0.96563235  0.54614170     0.13760
C1967       C  0.35205731  0.93435813  0.54337593    -0.23940
H1968       H  0.31591497  0.95876550  0.59061121     0.15050
H1969       H  0.33326310  0.03015931  0.50803615     0.15070
C1970       C  0.29054073  0.55115385  0.55331986    -0.23880
H1971       H  0.34257472  0.92037606  0.56199809     0.05290
H1972       H  0.37840670  0.93517069  0.54546120     0.08510
H1973       H  0.34554891  0.92295602  0.52044977     0.08510
H1974       H  0.29732755  0.56549707  0.57449757     0.08500
H1975       H  0.26442929  0.04632588  0.55417095     0.08500
H1976       H  0.29534336  0.06406875  0.53203178     0.05270
C1977       C  0.02434678  0.86466712  0.60822544    -0.20530
C1978       C  0.99620461  0.85220046  0.62013680    -0.07100
C1979       C  0.46699173  0.85662080  0.60507767     0.13770
C1980       C  0.46621842  0.87612253  0.58078596    -0.20590
C1981       C  0.99404533  0.88987252  0.56992540    -0.07100
C1982       C  0.02380571  0.88335922  0.58326177     0.13760
C1983       C  0.05500467  0.89708001  0.57278601    -0.23940
H1984       H  0.04682427  0.86086003  0.61946210     0.15050
H1985       H  0.44360975  0.88034346  0.56997025     0.15070
C1986       C  0.43641971  0.84038931  0.61296611    -0.23880
H1987       H  0.07541242  0.89022429  0.58684081     0.05290
H1988       H  0.05381680  0.92204300  0.57545823     0.08510
H1989       H  0.06020139  0.88948540  0.54802579     0.08510
H1990       H  0.41863330  0.85693703  0.62255702     0.08500
H1991       H  0.43971310  0.82298765  0.62982435     0.08500
H1992       H  0.42668223  0.82854905  0.59139319     0.05270
C1993       C  0.49290143  0.64120359  0.89103897    -0.20530
C1994       C  0.49992990  0.61177702  0.87899265    -0.07100
C1995       C  0.50303196  0.60584827  0.84618789     0.13770
C1996       C  0.50132183  0.62973844  0.82664050    -0.20590
C1997       C  0.49575073  0.65932184  0.83872831    -0.07100
C1998       C  0.49079138  0.66509615  0.87123273     0.13760
C1999       C  0.48430689  0.69649627  0.88503836    -0.23940
H2000       H  0.48953701  0.64557150  0.91607459     0.15050
H2001       H  0.00434661  0.62529873  0.80177223     0.15070
C2002       C  0.00678799  0.57448574  0.83166455    -0.23880
H2003       H  0.48154609  0.69720168  0.91090547     0.05290
H2004       H  0.46192542  0.70481360  0.87530415     0.08510
H2005       H  0.50442745  0.71178308  0.87930595     0.08510
H2006       H  0.48737989  0.55946146  0.83967235     0.08500
H2007       H  0.03036809  0.56548818  0.83726586     0.08500
H2008       H  0.00537740  0.57384506  0.80575025     0.05270
C2009       C  0.13990321  0.63890206  0.64175421    -0.20530
C2010       C  0.15390776  0.64287359  0.61209267    -0.07100
C2011       C  0.18750255  0.64917852  0.61168835     0.13770
C2012       C  0.20589257  0.63863061  0.63566386    -0.20590
C2013       C  0.19117095  0.62647176  0.66156728    -0.07100
C2014       C  0.15815594  0.63058662  0.66665283     0.13760
C2015       C  0.14129319  0.62237246  0.69628029    -0.23940
H2016       H  0.11430378  0.63865634  0.64455742     0.15050
H2017       H  0.23169960  0.63829128  0.63325982     0.15070
C2018       C  0.20503681  0.66720232  0.58809962    -0.23880
H2019       H  0.11557688  0.62814261  0.69628805     0.05290
H2020       H  0.15232007  0.63497086  0.71676528     0.08510
H2021       H  0.14275137  0.59777330  0.69875098     0.08510
H2022       H  0.18927342  0.67721815  0.57135637     0.08500
H2023       H  0.22302487  0.65296372  0.57507213     0.08500
H2024       H  0.21783980  0.68635032  0.60065882     0.05270
C2025       C  0.11785617  0.69338987  0.59119328    -0.20530
C2026       C  0.10626247  0.66335236  0.59009896    -0.07100
C2027       C  0.07291678  0.65895085  0.59759887     0.13770
C2028       C  0.05301489  0.68370619  0.59869622    -0.20590
C2029       C  0.06597942  0.71185962  0.60760321    -0.07100
C2030       C  0.09850499  0.71765305  0.60101411     0.13760
C2031       C  0.11355871  0.74857191  0.60560118    -0.23940
H2032       H  0.14274779  0.69776017  0.58616698     0.15050
H2033       H  0.02764245  0.68004279  0.60297954     0.15070
C2034       C  0.05727964  0.63190345  0.61169446    -0.23880
H2035       H  0.13829691  0.74903757  0.59589634     0.05290
H2036       H  0.11513710  0.75559022  0.63087784     0.08510
H2037       H  0.09944139  0.76494979  0.59332832     0.08510
H2038       H  0.07372591  0.61517130  0.61968465     0.08500
H2039       H  0.03958447  0.62113046  0.59527534     0.08500
H2040       H  0.04404965  0.63948512  0.63346522     0.05270
C2041       C  0.14827066  0.64198298  0.49421168    -0.20530
C2042       C  0.18088190  0.63648976  0.99389978    -0.07100
C2043       C  0.19156914  0.61869475  0.01705188     0.13770
C2044       C  0.17452793  0.61953230  0.54524578    -0.20590
C2045       C  0.14832428  0.63936037  0.55088657    -0.07100
C2046       C  0.13457750  0.65094530  0.52338529     0.13760
C2047       C  0.10824337  0.67401538  0.52265504    -0.23940
H2048       H  0.13791535  0.64953743  0.47313172     0.15050
H2049       H  0.18309257  0.60633503  0.56339687     0.15070
C2050       C  0.22208106  0.60143284  0.01270341    -0.23880
H2051       H  0.10124787  0.67782226  0.49834951     0.05290
H2052       H  0.11714548  0.69618388  0.53247616     0.08510
H2053       H  0.08586460  0.66758982  0.53449900     0.08510
H2054       H  0.24245946  0.61691507  0.00850509     0.08500
H2055       H  0.21987757  0.58479987  0.99227489     0.08500
H2056       H  0.22739880  0.58908717  0.03362936     0.05270
C2057       C  0.09165156  0.60336823  0.55712837    -0.20530
C2058       C  0.11553323  0.60675248  0.58002512    -0.07100
C2059       C  0.12172784  0.58104776  0.59730558     0.13770
C2060       C  0.09889299  0.55784522  0.59713912    -0.20590
C2061       C  0.07285880  0.55765490  0.57735683    -0.07100
C2062       C  0.07028010  0.57963359  0.55550441     0.13760
C2063       C  0.04507002  0.57892915  0.53037242    -0.23940
H2064       H  0.08750517  0.62075082  0.54179703     0.15050
H2065       H  0.10266656  0.53856306  0.61077817     0.15070
C2066       C  0.15237135  0.57421751  0.61304537    -0.23880
H2067       H  0.04763580  0.59814498  0.51526656     0.05290
H2068       H  0.52084662  0.58048204  0.54107718     0.08510
H2069       H  0.04707584  0.55814333  0.51467693     0.08510
H2070       H  0.14804061  0.57314301  0.63855384     0.08500
H2071       H  0.17201733  0.58988515  0.60872561     0.08500
H2072       H  0.16102881  0.55184359  0.60364990     0.05270
C2073       C  0.40558904  0.90117398  0.84446175    -0.20530
C2074       C  0.37409585  0.90893360  0.85428520    -0.07100
C2075       C  0.36578127  0.93995388  0.85323554     0.13770
C2076       C  0.39004675  0.96132201  0.84980212    -0.20590
C2077       C  0.42197276  0.95293530  0.84972889    -0.07100
C2078       C  0.42966907  0.92274051  0.84214142     0.13760
C2079       C  0.46321670  0.91239450  0.83469538    -0.23940
H2080       H  0.41292856  0.87827838  0.84065348     0.15050
H2081       H  0.38445213  0.98510393  0.85254571     0.15070
C2082       C  0.33238553  0.95188535  0.85748642    -0.23880
H2083       H  0.46338965  0.88900515  0.82376266     0.05290
H2084       H  0.47727989  0.91237471  0.85642388     0.08510
H2085       H  0.47472331  0.92707808  0.81776151     0.08510
H2086       H  0.32122155  0.94592311  0.87977633     0.08500
H2087       H  0.33180329  0.97684921  0.85773452     0.08500
H2088       H  0.31809522  0.94355754  0.83734578     0.05270
C2089       C  0.30465947  0.88996933  0.90740159    -0.20530
C2090       C  0.33668706  0.89546902  0.89848605    -0.07100
C2091       C  0.35712726  0.90412255  0.92473798     0.13770
C2092       C  0.34842411  0.89336787  0.95417124    -0.20590
C2093       C  0.31636790  0.88543499  0.95940336    -0.07100
C2094       C  0.29508502  0.89655473  0.93823083     0.13760
C2095       C  0.26037266  0.90161445  0.94621889    -0.23940
H2096       H  0.28853192  0.87563022  0.89358051     0.15050
H2097       H  0.36583833  0.89163731  0.97237309     0.15070
C2098       C  0.38474010  0.92638541  0.92376715    -0.23880
H2099       H  0.25392946  0.92462449  0.94030964     0.05290
H2100       H  0.25565942  0.89970632  0.97159124     0.08510
H2101       H  0.24499883  0.88515529  0.93258424     0.08510
H2102       H  0.37556182  0.94837682  0.91746708     0.08500
H2103       H  0.40405487  0.91951618  0.90716439     0.08500
H2104       H  0.39581371  0.93023866  0.94714928     0.05270
C2105       C  0.29412541  0.89133575  0.83895192    -0.20530
C2106       C  0.32637944  0.88166202  0.83620665    -0.07100
C2107       C  0.33736210  0.87429904  0.80425109     0.13770
C2108       C  0.31936569  0.88329975  0.77919561    -0.20590
C2109       C  0.28997621  0.89678755  0.78452288    -0.07100
C2110       C  0.27483087  0.89388319  0.81322947     0.13760
C2111       C  0.23945324  0.89929874  0.81753762    -0.23940
H2112       H  0.28449030  0.90348465  0.85915191     0.15050
H2113       H  0.33013349  0.88324696  0.75598778     0.15070
C2114       C  0.36872184  0.86042758  0.79379459    -0.23880
H2115       H  0.23170626  0.89710040  0.84220089     0.05290
H2116       H  0.22608083  0.88217936  0.80260697     0.08510
H2117       H  0.23269323  0.92193531  0.81091125     0.08510
H2118       H  0.38244994  0.85134367  0.81210294     0.08500
H2119       H  0.38385558  0.87727811  0.78230727     0.08500
H2120       H  0.36410562  0.84109298  0.77652739     0.05270
C2121       C  0.39479647  0.85390329  0.88826401    -0.20530
C2122       C  0.36619428  0.85395569  0.87078942    -0.07100
C2123       C  0.35705048  0.82553413  0.85615704     0.13770
C2124       C  0.38138820  0.80523095  0.84700858    -0.20590
C2125       C  0.41325953  0.81224406  0.85499472    -0.07100
C2126       C  0.41930494  0.83424714  0.87906050     0.13760
C2127       C  0.45199033  0.83953214  0.89285184    -0.23940
H2128       H  0.40140849  0.87188700  0.90454099     0.15050
H2129       H  0.37587266  0.78593141  0.83105696     0.15070
C2130       C  0.32309408  0.81645119  0.84887393    -0.23880
H2131       H  0.46108580  0.86221178  0.88754871     0.05290
H2132       H  0.46941725  0.82247698  0.88359048     0.08510
H2133       H  0.45041524  0.83834222  0.91862905     0.08510
H2134       H  0.31967184  0.81415217  0.82315823     0.08500
H2135       H  0.30583253  0.83266242  0.85990871     0.08500
H2136       H  0.31770452  0.79438040  0.85851684     0.05270
C2137       C  0.85002308  0.38463064  0.36503945    -0.02720
C2138       C  0.63132499  0.13845201  0.08345115    -0.02720
C2139       C  0.55968536  0.40766175  0.42432475     0.42230
N2140       N  0.53806176  0.45198851  0.42835203     0.01120
C2141       C  0.51969067  0.03104929  0.07094568    -0.06760
H2142       H  0.94804563  0.44098126  0.06332644     0.06610
C2143       C  0.88613091  0.49797995  0.47668436    -0.07110
Co2144     Co  0.54078118  0.47305404  0.49469455     0.74180
N2145       N  0.98171008  0.45776125  0.02992763    -0.26290
Co2146     Co  0.96951809  0.50259316  0.02528869     0.74070
C2147       C  0.87576077  0.48406390  0.50559848     0.42330
N2148       N  0.95377325  0.49527499  0.41409270     0.00740
N2149       N  0.92710364  0.48983123  0.00469021     0.00480
N2150       N  0.56483397  0.01113415  0.04958187    -0.47130
H2151       H  0.56026890  0.40553775  0.47713812     0.06600
N2152       N  0.50819187  0.44667568  0.01759960     0.01130
N2153       N  0.95701435  0.04838608  0.01938360     0.00870
C2154       C  0.93842085  0.09361675  0.02402028     0.42470
N2155       N  0.98130828  0.48497143  0.40274118    -0.25740
C2156       C  0.60680261  0.00080417  0.46895190    -0.06660
N2157       N  0.55120293  0.43158581  0.40784010    -0.46850
N2158       N  0.94726769  0.06995194  0.04047198    -0.47070
C2159       C  0.61604941  0.01679432  0.44077452     0.42240
N2160       N  0.53965041  0.00236747  0.03335336     0.01110
N2161       N  0.01072853  0.04223815  0.41770357    -0.25760
N2162       N  0.54037346  0.44339782  0.45693364    -0.26260
N2163       N  0.98332698  0.05284814  0.42881865     0.00750
H2164       H  0.04653482  0.05993374  0.38713099     0.06640
H2165       H  0.93323841  0.09493084  0.47123736     0.06680
N2166       N  0.51287330  0.01388584  0.04511099    -0.26310
N2167       N  0.91837980  0.50031971  0.47806539    -0.25920
N2168       N  0.56478140  0.01257285  0.44489491     0.01120
C2169       C  0.49085550  0.41232041  0.04637823     0.42520
C2170       C  0.97664313  0.47039955  0.37489580    -0.07170
N2171       N  0.95229577  0.05612847  0.49069061    -0.25920
H2172       H  0.87153685  0.50795123  0.45964980     0.06660
N2173       N  0.51471769  0.41986043  0.02698813    -0.47140
H2174       H  0.99542685  0.46196058  0.35926637     0.06650
C2175       C  0.00188104  0.08777620  0.40115286     0.42350
C2176       C  0.55195308  0.41582616  0.45664796    -0.06670
Co2177     Co  0.52387425  0.99783212  0.42308048     0.73820
N2178       N  0.92998738  0.48830098  0.39515086    -0.46860
C2179       C  0.55442672  0.03031039  0.07294758     0.42620
N2180       N  0.58814913  0.02390135  0.42842772    -0.46850
Co2181     Co  0.95167273  0.02594888  0.45260721     0.73890
C2182       C  0.94190824  0.08416684  0.49128538    -0.07170
C2183       C  0.96868649  0.43736313  0.04814230    -0.06740
N2184       N  0.57442748  0.99954222  0.46967063    -0.26260
N2185       N  0.90286181  0.48018950  0.02131550    -0.47030
H2186       H  0.00293839  0.04424378  0.08529048     0.06620
C2187       C  0.02447382  0.06289121  0.40030014    -0.07150
Cl2188     Cl  0.99637851  0.99989139  0.47392283    -0.50150
C2189       C  0.94246276  0.47254008  0.36990510     0.42380
H2190       H  0.62205492  0.98852528  0.48358349     0.06590
N2191       N  0.97695541  0.07976717  0.41921408    -0.46860
C2192       C  0.69958324  0.16400413  0.48927190     0.42230
N2193       N  0.72282763  0.20378206  0.51046395     0.01120
C2194       C  0.69983364  0.33529533  0.43787672    -0.06760
H2195       H  0.71826986  0.25616097  0.36739783     0.06610
C2196       C  0.81755362  0.21897438  0.41349820    -0.07110
Co2197     Co  0.69556449  0.25884030  0.48441768     0.74180
N2198       N  0.71417620  0.25545355  0.41735424    -0.26290
Co2199     Co  0.74965772  0.28410783  0.43403360     0.74070
C2200       C  0.79931498  0.21687956  0.38404689     0.42330
N2201       N  0.81493956  0.21390303  0.49091701     0.00740
N2202       N  0.78366307  0.25494917  0.41431482     0.00840
N2203       N  0.66508251  0.31749510  0.47287416    -0.47130
H2204       H  0.66642270  0.19276522  0.46165002     0.06600
N2205       N  0.69170774  0.24615054  0.43629291     0.01130
N2206       N  0.78407947  0.31213321  0.45322461     0.00870
C2207       C  0.80736181  0.35427864  0.46723902     0.42470
N2208       N  0.79407644  0.20401073  0.51131133    -0.25740
C2209       C  0.68948794  0.29795427  0.04817409    -0.06660
N2210       N  0.72290776  0.17398368  0.50916865    -0.46850
N2211       N  0.78188891  0.34128383  0.45287586    -0.47070
C2212       C  0.70764294  0.30182277  0.07744352     0.42240
N2213       N  0.69238362  0.30285872  0.47257731     0.01110
N2214       N  0.79372032  0.26135269  0.04572278    -0.25760
N2215       N  0.70040321  0.21421107  0.49310347    -0.26260
N2216       N  0.81600594  0.27132571  0.02678734     0.00750
H2217       H  0.78952811  0.26051985  0.09562246     0.06640
H2218       H  0.84790072  0.32974686  0.49086816     0.06680
N2219       N  0.71306327  0.31244125  0.45190323    -0.26310
N2220       N  0.80629490  0.24335354  0.43070484    -0.25920
N2221       N  0.72394693  0.26245538  0.04915632     0.01120
C2222       C  0.67516431  0.23354947  0.38990026     0.42520
C2223       C  0.80604451  0.17936290  0.52327278    -0.07170
N2224       N  0.80933584  0.30374590  0.46815823    -0.25920
H2225       H  0.83422818  0.20303996  0.42165675     0.06660
N2226       N  0.66696585  0.23396365  0.42068622    -0.47140
H2227       H  0.79622418  0.16878509  0.54333266     0.06650
C2228       C  0.83215427  0.28399346  0.07336513     0.42350
C2229       C  0.68532845  0.19102870  0.47828184    -0.06670
Co2230     Co  0.75789215  0.23232052  0.02980881     0.73820
N2231       N  0.84113583  0.19758231  0.48883164    -0.46860
C2232       C  0.66772558  0.33844724  0.45170413     0.42620
N2233       N  0.72842166  0.27886538  0.07583994    -0.46850
Co2234     Co  0.81288195  0.25835079  0.47842308     0.73890
C2235       C  0.82634521  0.32898960  0.47722572    -0.07170
C2236       C  0.70603457  0.24841124  0.38778442    -0.06740
N2237       N  0.70140979  0.27334600  0.03211768    -0.26260
N2238       N  0.77896524  0.23995540  0.38698188    -0.47030
H2239       H  0.70880348  0.34421311  0.41656152     0.06620
C2240       C  0.80165431  0.26852698  0.07530525    -0.07150
Cl2241     Cl  0.75410379  0.25843864  0.48176378    -0.50150
C2242       C  0.83772001  0.17529099  0.50851112     0.42380
H2243       H  0.67274931  0.31322695  0.03896807     0.06590
N2244       N  0.84033602  0.28416326  0.04257006    -0.46860
C2245       C  0.60260048  0.24252085  0.27876090     0.42230
N2246       N  0.56451616  0.23389255  0.24639622     0.01120
C2247       C  0.97672363  0.33985835  0.17655428    -0.06760
H2248       H  0.50640594  0.38190785  0.27254533     0.06610
C2249       C  0.93939869  0.27163973  0.31939028    -0.07110
Co2250     Co  0.54684897  0.28882428  0.21431928     0.74180
N2251       N  0.51943810  0.33645308  0.25824576    -0.26290
Co2252     Co  0.97580041  0.31532460  0.24317834     0.74070
C2253       C  0.93913914  0.30187798  0.33369397     0.42330
N2254       N  0.98058412  0.21379162  0.28371355     0.00740
N2255       N  0.96079727  0.30250989  0.28773207     0.00840
N2256       N  0.52391300  0.32142887  0.15798850    -0.47130
H2257       H  0.60795436  0.29181879  0.26600622     0.06600
N2258       N  0.54680053  0.32487027  0.24797304     0.01130
N2259       N  0.93415532  0.29536826  0.22453018     0.00870
C2260       C  0.89720606  0.28553748  0.19070359     0.42470
N2261       N  0.00801152  0.20391444  0.27192397    -0.25740
C2262       C  0.55505356  0.25649985  0.14957212    -0.06660
N2263       N  0.58143205  0.22154557  0.26781813    -0.46850
N2264       N  0.91768648  0.30696773  0.20225282    -0.47070
C2265       C  0.55005948  0.22632233  0.13533386     0.42240
N2266       N  0.51815258  0.31412903  0.18698953     0.01110
N2267       N  0.97997248  0.19393478  0.21144813    -0.25760
N2268       N  0.57303140  0.26218117  0.24275098    -0.26260
N2269       N  0.95265117  0.20501748  0.22204432     0.00750
H2270       H  0.99311567  0.15013722  0.19191409     0.06640
H2271       H  0.89281708  0.23639608  0.20403407     0.06680
N2272       N  0.99072903  0.32452235  0.19830485    -0.26310
N2273       N  0.95228389  0.27419648  0.29116101    -0.25920
N2274       N  0.53671865  0.22703371  0.18394141     0.01120
C2275       C  0.55966331  0.37175427  0.26090821     0.42520
C2276       C  0.52024379  0.18486671  0.29104748    -0.07170
N2277       N  0.92613851  0.26698304  0.22816646    -0.25920
H2278       H  0.92810767  0.25149250  0.32737665     0.06660
N2279       N  0.57066219  0.34482103  0.24928294    -0.47140
H2280       H  0.54162520  0.17186159  0.28645909     0.06650
C2281       C  0.93968424  0.15969700  0.20377145     0.42350
C2282       C  0.59710092  0.26967450  0.26233043    -0.06670
Co2283     Co  0.52287342  0.21442169  0.22775632     0.73820
N2284       N  0.97290542  0.20169808  0.31036560    -0.46860
C2285       C  0.49835376  0.33695584  0.14952402     0.42620
N2286       N  0.53873949  0.20928040  0.15813754    -0.46850
Co2287     Co  0.95237010  0.24023882  0.25643652     0.73890
C2288       C  0.90279236  0.25887028  0.20796706    -0.07170
C2289       C  0.52511321  0.36588737  0.26719424    -0.06740
N2290       N  0.54645850  0.25469566  0.17954468    -0.26260
N2291       N  0.95244331  0.32009379  0.31267285    -0.47030
H2292       H  0.95426549  0.35147192  0.17932705     0.06620
C2293       C  0.97437699  0.16558186  0.19908084    -0.07150
Cl2294     Cl  0.99958135  0.26487118  0.23576775    -0.50150
C2295       C  0.99741644  0.18362030  0.31672638     0.42380
H2296       H  0.56388919  0.27655510  0.13931629     0.06590
N2297       N  0.92860098  0.18557839  0.21808420    -0.46860
C2298       C  0.70080899  0.50611639  0.33562402     0.42230
N2299       N  0.73603823  0.51268726  0.29976805     0.01120
C2300       C  0.71405079  0.07370569  0.15918663    -0.06760
H2301       H  0.65928150  0.45752374  0.17893866     0.06610
C2302       C  0.76296911  0.42273209  0.17009328    -0.07110
Co2303     Co  0.70720874  0.04500825  0.24877172     0.74180
N2304       N  0.68028485  0.49764730  0.20212938    -0.26290
Co2305     Co  0.72117961  0.50699545  0.17483792     0.74070
C2306       C  0.73349942  0.41455081  0.15301596     0.42330
N2307       N  0.79332163  0.46097746  0.23998269     0.00740
N2308       N  0.73213696  0.46127221  0.17020878     0.00840
N2309       N  0.70323466  0.09665097  0.20664723    -0.47130
H2310       H  0.66171393  0.52759456  0.30791877     0.06600
N2311       N  0.67462746  0.51193495  0.22970271     0.01130
N2312       N  0.76296364  0.01440530  0.14821612     0.00870
C2313       C  0.79557029  0.01399406  0.10858821     0.42470
N2314       N  0.78639497  0.47477391  0.26744484    -0.25740
C2315       C  0.73850242  0.10533895  0.28096271    -0.06660
N2316       N  0.73231647  0.50309330  0.32841602    -0.46850
N2317       N  0.76468569  0.01821089  0.11767739    -0.47070
C2318       C  0.76764634  0.11184482  0.29939323     0.42240
N2319       N  0.70724848  0.06736549  0.20816382     0.01110
N2320       N  0.81954664  0.02979069  0.24800880    -0.25760
N2321       N  0.70914724  0.52258829  0.28892277    -0.26260
N2322       N  0.82516408  0.01712092  0.21968115     0.00750
H2323       H  0.84107321  0.06765595  0.27441427     0.06640
H2324       H  0.83613455  0.99676343  0.13755777     0.06680
N2325       N  0.71294745  0.05324561  0.18057506    -0.26310
N2326       N  0.76009078  0.45217574  0.17950112    -0.25920
N2327       N  0.76826112  0.06603245  0.27948328     0.01120
C2328       C  0.63952497  0.47530636  0.22688266     0.42520
C2329       C  0.78125889  0.45416836  0.28796037    -0.07170
N2330       N  0.79060905  0.00634808  0.15916125    -0.25920
H2331       H  0.78403413  0.40939076  0.17262985     0.06660
N2332       N  0.65101350  0.49892434  0.24534400    -0.47140
H2333       H  0.77396399  0.45886017  0.31206691     0.06650
C2334       C  0.86028781  0.05329952  0.22532485     0.42350
C2335       C  0.68580815  0.51954120  0.30980365    -0.06670
Co2336     Co  0.77843326  0.02040618  0.27416398     0.73820
N2337       N  0.79369651  0.43125186  0.24070642    -0.46860
C2338       C  0.70733740  0.10248731  0.17639946     0.42620
N2339       N  0.78448495  0.08623542  0.29727314    -0.46850
Co2340     Co  0.79329268  0.48399280  0.19981094     0.73890
C2341       C  0.81261356  0.00631253  0.13632809    -0.07170
C2342       C  0.65921627  0.47449649  0.19826015    -0.06740
N2343       N  0.74091564  0.07622548  0.26980915    -0.26260
N2344       N  0.71587919  0.43978854  0.15404291    -0.47030
H2345       H  0.71845313  0.06895186  0.13441117     0.06620
C2346       C  0.84090547  0.05219228  0.25380941    -0.07150
Cl2347     Cl  0.75007554  0.51417554  0.22435721    -0.50150
C2348       C  0.78533134  0.42538131  0.27015206     0.42380
H2349       H  0.71765342  0.11915571  0.27925052     0.06590
N2350       N  0.84893451  0.03093978  0.20510109    -0.46860
C2351       C  0.91236463  0.07611226  0.20826922    -0.20530
C2352       C  0.87994615  0.07978810  0.21623734    -0.07100
C2353       C  0.86709141  0.10904321  0.21667171     0.13770
C2354       C  0.88712308  0.13372772  0.21062218    -0.20590
C2355       C  0.92020773  0.13072645  0.20466930    -0.07100
C2356       C  0.93272067  0.10102652  0.20274139     0.13760
C2357       C  0.96738974  0.09497957  0.19577235    -0.23940
H2358       H  0.92211858  0.05364315  0.20754369     0.15050
H2359       H  0.87674287  0.15593799  0.21148136     0.15070
C2360       C  0.83206222  0.11455970  0.22317167    -0.23880
H2361       H  0.97256059  0.07050796  0.19458135     0.05290
H2362       H  0.98226633  0.10594145  0.21465589     0.08510
H2363       H  0.97409392  0.10331731  0.17272329     0.08510
H2364       H  0.82585270  0.11000462  0.24762959     0.08500
H2365       H  0.81738749  0.09985277  0.20682220     0.08500
H2366       H  0.82565807  0.13830063  0.22011978     0.05270
C2367       C  0.61244188  0.39835075  0.25440009    -0.20530
C2368       C  0.57879672  0.40056118  0.25601287    -0.07100
C2369       C  0.56555544  0.42876321  0.24949873     0.13770
C2370       C  0.58587315  0.45286770  0.24098682    -0.20590
C2371       C  0.61920709  0.44990434  0.23829074    -0.07100
C2372       C  0.63255192  0.42230460  0.24567553     0.13760
C2373       C  0.66821130  0.41802245  0.24449903    -0.23940
H2374       H  0.62325357  0.37727313  0.25941465     0.15050
H2375       H  0.57553547  0.47403723  0.23555458     0.15070
C2376       C  0.53012983  0.43374221  0.25036610    -0.23880
H2377       H  0.67488566  0.39555605  0.25191209     0.05290
H2378       H  0.68001506  0.43544736  0.26039659     0.08510
H2379       H  0.67741086  0.41988790  0.22028063     0.08510
H2380       H  0.52079057  0.43154499  0.27446463     0.08500
H2381       H  0.51814782  0.41729044  0.23355051     0.08500
H2382       H  0.52409616  0.45665956  0.24375830     0.05270
C2383       C  0.70481260  0.35815348  0.08681640    -0.20530
C2384       C  0.71268560  0.33029829  0.09810237    -0.07100
C2385       C  0.72697227  0.33052837  0.12805321     0.13770
C2386       C  0.73352447  0.35820045  0.14519484    -0.20590
C2387       C  0.72578185  0.38594528  0.13375310    -0.07100
C2388       C  0.71113600  0.38576714  0.10405378     0.13760
C2389       C  0.70328357  0.41463527  0.08957170    -0.23940
H2390       H  0.69432974  0.35852910  0.06390237     0.15050
H2391       H  0.74455558  0.35815608  0.16792787     0.15070
C2392       C  0.73484834  0.30173296  0.14260853    -0.23880
H2393       H  0.69395524  0.41037943  0.06549972     0.05290
H2394       H  0.72511366  0.42899200  0.08814623     0.08510
H2395       H  0.68462353  0.42690836  0.10374875     0.08510
H2396       H  0.75410007  0.28984867  0.12901282     0.08500
H2397       H  0.71323295  0.28702482  0.14332267     0.08500
H2398       H  0.74342424  0.30605170  0.16695136     0.05270
C2399       C  0.77289914  0.16760390  0.31137103    -0.20530
C2400       C  0.77567565  0.13846635  0.32144311    -0.07100
C2401       C  0.78717442  0.13523065  0.35208462     0.13770
C2402       C  0.79579483  0.16098041  0.37145724    -0.20590
C2403       C  0.79317217  0.19017309  0.36137896    -0.07100
C2404       C  0.78164434  0.19337356  0.33070333     0.13760
C2405       C  0.77920737  0.22387831  0.31771055    -0.23940
H2406       H  0.76430248  0.17020540  0.28798013     0.15050
H2407       H  0.80382171  0.15825635  0.39500797     0.15070
C2408       C  0.78918197  0.10474860  0.36520030    -0.23880
H2409       H  0.77222072  0.22200563  0.29272643     0.05290
H2410       H  0.80265911  0.23581783  0.31937543     0.08510
H2411       H  0.76080956  0.23749810  0.33074588     0.08510
H2412       H  0.80742251  0.09092413  0.35211580     0.08500
H2413       H  0.76555889  0.09309233  0.36361412     0.08500
H2414       H  0.79616628  0.10658888  0.39018715     0.05270
C2415       C  0.62766934  0.25181094  0.36374271    -0.20530
C2416       C  0.65298226  0.23152360  0.36350062    -0.07100
C2417       C  0.66071420  0.21406836  0.33568537     0.13770
C2418       C  0.64367044  0.21810248  0.30839020    -0.20590
C2419       C  0.61977176  0.23975581  0.30812226    -0.07100
C2420       C  0.61091845  0.25619672  0.33628578     0.13760
C2421       C  0.58372169  0.27808165  0.33756448    -0.23940
H2422       H  0.62206671  0.26534584  0.38504221     0.15050
H2423       H  0.64949641  0.20478578  0.28695504     0.15070
C2424       C  0.68706434  0.19127152  0.33478184    -0.23880
H2425       H  0.57937326  0.28811820  0.36170872     0.05290
H2426       H  0.56146153  0.26628632  0.32947577     0.08510
H2427       H  0.58925228  0.29675890  0.32243036     0.08510
H2428       H  0.68193232  0.17451239  0.35227507     0.08500
H2429       H  0.71027637  0.20260906  0.34019353     0.08500
H2430       H  0.68940084  0.17899536  0.31139334     0.05270
C2431       C  0.85451523  0.31221092  0.11976039    -0.20530
C2432       C  0.85433036  0.28591656  0.09980310    -0.07100
C2433       C  0.86894758  0.25973954  0.10939441     0.13770
C2434       C  0.88285980  0.26033336  0.13904420    -0.20590
C2435       C  0.88231799  0.28639844  0.15953175    -0.07100
C2436       C  0.86847891  0.31287948  0.14947520     0.13760
C2437       C  0.86699580  0.34150386  0.17043115    -0.23940
H2438       H  0.84240738  0.33192028  0.11260621     0.15050
H2439       H  0.89403228  0.24019344  0.14628153     0.15070
C2440       C  0.86915068  0.23090212  0.08866654    -0.23880
H2441       H  0.85383472  0.35939603  0.15940052     0.05290
H2442       H  0.89144812  0.35030493  0.17538138     0.08510
H2443       H  0.85457769  0.33706987  0.19274896     0.08510
H2444       H  0.88107616  0.23502865  0.06606614     0.08500
H2445       H  0.84437224  0.22267801  0.08423120     0.08500
H2446       H  0.88219141  0.21278337  0.09944675     0.05270
C2447       C  0.92171733  0.14574596  0.52200405    -0.20530
C2448       C  0.91498365  0.11746766  0.03300985    -0.07100
C2449       C  0.88288516  0.11015822  0.54049103     0.13770
C2450       C  0.85824056  0.13006005  0.53378858    -0.20590
C2451       C  0.86484215  0.15690761  0.51911155    -0.07100
C2452       C  0.89741125  0.16540777  0.51463548     0.13760
C2453       C  0.90732722  0.19459720  0.50112339    -0.23940
H2454       H  0.94638957  0.15125486  0.01607537     0.15050
H2455       H  0.83362255  0.12365252  0.53825453     0.15070
C2456       C  0.87480283  0.08054728  0.05360606    -0.23880
H2457       H  0.93364612  0.19806900  0.50134054     0.05290
H2458       H  0.89659818  0.21391722  0.51507707     0.08510
H2459       H  0.89984507  0.19447263  0.47637303     0.08510
H2460       H  0.88808308  0.07845055  0.07557319     0.08500
H2461       H  0.88103575  0.06162668  0.53644870     0.08500
H2462       H  0.84894633  0.07880437  0.55920907     0.05270
C2463       C  0.64480945  0.38184069  0.42649111    -0.20530
C2464       C  0.63993401  0.35351797  0.43820510    -0.07100
C2465       C  0.60865505  0.34063462  0.43706000     0.13770
C2466       C  0.58306930  0.35750970  0.42680888    -0.20590
C2467       C  0.58741282  0.38727573  0.41853300    -0.07100
C2468       C  0.61894107  0.39899407  0.41752364     0.13760
C2469       C  0.62504857  0.43057447  0.40946646    -0.23940
H2470       H  0.66869779  0.39158183  0.42659730     0.15050
H2471       H  0.55894104  0.34848891  0.42828710     0.15070
C2472       C  0.60158373  0.30946903  0.44726798    -0.23880
H2473       H  0.65096445  0.43623677  0.40863537     0.05290
H2474       H  0.61339268  0.44630403  0.42719747     0.08510
H2475       H  0.61481101  0.43320551  0.38619199     0.08510
H2476       H  0.60496159  0.30906871  0.97318296     0.08500
H2477       H  0.61754738  0.29296315  0.43457869     0.08500
H2478       H  0.57653827  0.30228036  0.44233529     0.05270
C2479       C  0.63157627  0.99389521  0.38883816    -0.20530
C2480       C  0.64171189  0.00803499  0.41751315    -0.07100
C2481       C  0.67406375  0.01700131  0.42046336     0.13770
C2482       C  0.69485164  0.01321936  0.39406506    -0.20590
C2483       C  0.68372939  0.50035599  0.36513733    -0.07100
C2484       C  0.65219902  0.98884033  0.36329421     0.13760
C2485       C  0.63900891  0.97221737  0.33407583    -0.23940
H2486       H  0.60682393  0.98680338  0.38605962     0.15050
H2487       H  0.71893851  0.52232137  0.39543045     0.15070
C2488       C  0.68590907  0.03233510  0.45056172    -0.23880
H2489       H  0.62849979  0.95024621  0.33971529     0.05290
H2490       H  0.65760061  0.46696743  0.31584351     0.08510
H2491       H  0.62006892  0.98576185  0.32413473     0.08510
H2492       H  0.68248339  0.01707584  0.46979619     0.08500
H2493       H  0.67238842  0.05333316  0.45628927     0.08500
H2494       H  0.71169117  0.03831978  0.44893076     0.05270
C2495       C  0.81921936  0.47430140  0.07241272    -0.20530
C2496       C  0.80621423  0.00326613  0.07647413    -0.07100
C2497       C  0.80848254  0.52225654  0.05153711     0.13770
C2498       C  0.82873853  0.51418987  0.02560699    -0.20590
C2499       C  0.84553219  0.48687315  0.02389104    -0.07100
C2500       C  0.83841117  0.46574805  0.04632185     0.13760
C2501       C  0.85217910  0.43448013  0.04361283    -0.23940
H2502       H  0.81597535  0.45891489  0.09078184     0.15050
H2503       H  0.83333578  0.53021276  0.00811799     0.15070
C2504       C  0.79050695  0.05144828  0.05305343    -0.23880
H2505       H  0.84265468  0.42050689  0.06222392     0.05290
H2506       H  0.87852104  0.43530801  0.04576995     0.08510
H2507       H  0.84573732  0.42305636  0.02067627     0.08510
H2508       H  0.79721278  0.06581090  0.07424373     0.08500
H2509       H  0.76444416  0.54637092  0.05415292     0.08500
H2510       H  0.79537837  0.56412268  0.03204461     0.05270
C2511       C  0.52435706  0.36473144  0.10824981    -0.20530
C2512       C  0.49624327  0.35219449  0.12013724    -0.07100
C2513       C  0.96700750  0.35653888  0.10499735     0.13770
C2514       C  0.96624847  0.37596719  0.08064070    -0.20590
C2515       C  0.49399806  0.38982558  0.06991253    -0.07100
C2516       C  0.52377310  0.38340677  0.08327593     0.13760
C2517       C  0.55493492  0.39721418  0.07281954    -0.23940
H2518       H  0.54683668  0.36099727  0.11951511     0.15050
H2519       H  0.94363959  0.38018343  0.06982295     0.15070
C2520       C  0.93642146  0.34036345  0.11295111    -0.23880
H2521       H  0.57535431  0.39043537  0.08690388     0.05290
H2522       H  0.55365836  0.42217295  0.07546567     0.08510
H2523       H  0.56017989  0.38961413  0.04807032     0.08510
H2524       H  0.91865866  0.35695189  0.12250492     0.08500
H2525       H  0.93970429  0.32300811  0.12986197     0.08500
H2526       H  0.92665980  0.32847581  0.09141431     0.05270
C2527       C  0.99316674  0.14150761  0.39119550    -0.20530
C2528       C  0.00013579  0.11204857  0.37921398    -0.07100
C2529       C  0.00317912  0.10603544  0.34641513     0.13770
C2530       C  0.00146749  0.12987417  0.32680185    -0.20590
C2531       C  0.99594622  0.15948774  0.33882031    -0.07100
C2532       C  0.99105136  0.16534851  0.37132394     0.13760
C2533       C  0.98463189  0.19678602  0.38505837    -0.23940
H2534       H  0.98985278  0.14594065  0.41622913     0.15050
H2535       H  0.50417013  0.12535696  0.30167800     0.15070
C2536       C  0.50669335  0.07451511  0.33151286    -0.23880
H2537       H  0.98192298  0.19756024  0.41093275     0.05290
H2538       H  0.96224117  0.20510386  0.37534365     0.08510
H2539       H  0.00476010  0.21203196  0.37924475     0.08510
H2540       H  0.98745543  0.05966045  0.34004328     0.08500
H2541       H  0.53028764  0.06553661  0.33709565     0.08500
H2542       H  0.50527072  0.07389792  0.30560049     0.05270
C2543       C  0.63968564  0.13901153  0.14184338    -0.20530
C2544       C  0.65373466  0.14295922  0.11219448    -0.07100
C2545       C  0.68732694  0.14928624  0.11183721     0.13770
C2546       C  0.70568278  0.13878903  0.13586423    -0.20590
C2547       C  0.69092945  0.12663777  0.16175600    -0.07100
C2548       C  0.65790606  0.13073646  0.16678494     0.13760
C2549       C  0.64100937  0.12253945  0.19639939    -0.23940
H2550       H  0.61408163  0.13874651  0.14460470     0.15050
H2551       H  0.73149329  0.13845912  0.13349813     0.15070
C2552       C  0.70489943  0.16727000  0.08823903    -0.23880
H2553       H  0.61529318  0.12830583  0.19637088     0.05290
H2554       H  0.65201199  0.13515170  0.21688910     0.08510
H2555       H  0.64246719  0.09794386  0.19889066     0.08510
H2556       H  0.68917057  0.17723968  0.07143558     0.08500
H2557       H  0.72291996  0.15301663  0.07527763     0.08500
H2558       H  0.71766801  0.18644800  0.10078313     0.05270
C2559       C  0.61776624  0.19345222  0.09114717    -0.20530
C2560       C  0.60614437  0.16342346  0.09009017    -0.07100
C2561       C  0.57278850  0.15905823  0.09757904     0.13770
C2562       C  0.55292321  0.18384300  0.09869458    -0.20590
C2563       C  0.56593271  0.21197520  0.10761340    -0.07100
C2564       C  0.59845202  0.21773693  0.10098137     0.13760
C2565       C  0.61354007  0.24864192  0.10555662    -0.23940
H2566       H  0.64265819  0.19779884  0.08610665     0.15050
H2567       H  0.52754731  0.18021427  0.10298901     0.15070
C2568       C  0.55710121  0.13201596  0.11164134    -0.23880
H2569       H  0.63826594  0.24908692  0.09581905     0.05290
H2570       H  0.61515654  0.25565330  0.13083209     0.08510
H2571       H  0.59942038  0.26503633  0.09330887     0.08510
H2572       H  0.57351716  0.11527480  0.11966693     0.08500
H2573       H  0.53943466  0.12125427  0.09518410     0.08500
H2574       H  0.54383054  0.13959792  0.13338797     0.05270
C2575       C  0.64828792  0.14185080  0.99428566    -0.20530
C2576       C  0.68047928  0.13657092  0.49421423    -0.07100
C2577       C  0.69116213  0.11877397  0.51736326     0.13770
C2578       C  0.67447131  0.11952657  0.04541642    -0.20590
C2579       C  0.64825288  0.13935345  0.05097663    -0.07100
C2580       C  0.63454502  0.15087327  0.02342303     0.13760
C2581       C  0.60823719  0.17396021  0.02260694    -0.23940
H2582       H  0.63796911  0.14935849  0.97316705     0.15050
H2583       H  0.68301063  0.10636474  0.06360671     0.15070
C2584       C  0.72158850  0.10138628  0.51294832    -0.23880
H2585       H  0.60128168  0.17772099  0.99827880     0.05290
H2586       H  0.61715066  0.19613707  0.03239472     0.08510
H2587       H  0.58583584  0.16758524  0.03444217     0.08510
H2588       H  0.74201919  0.11677993  0.50865761     0.08500
H2589       H  0.71925242  0.08473099  0.49255469     0.08500
H2590       H  0.72691964  0.08905260  0.53387946     0.05270
C2591       C  0.59154106  0.10340089  0.05719059    -0.20530
C2592       C  0.61539790  0.10680387  0.08011207    -0.07100
C2593       C  0.62158192  0.08110936  0.09741336     0.13770
C2594       C  0.59877668  0.05787976  0.09720451    -0.20590
C2595       C  0.57278450  0.05765381  0.07737044    -0.07100
C2596       C  0.57020051  0.07964123  0.05553077     0.13760
C2597       C  0.54501853  0.07891346  0.03037090    -0.23940
H2598       H  0.58739221  0.12078291  0.04185980     0.15050
H2599       H  0.60254824  0.03860207  0.11085082     0.15070
C2600       C  0.65219449  0.07431297  0.11322300    -0.23880
H2601       H  0.54757089  0.09814140  0.01527947     0.05290
H2602       H  0.02110248  0.08052191  0.04084940     0.08510
H2603       H  0.54707150  0.05813706  0.01466764     0.08510
H2604       H  0.64780889  0.07325108  0.13872496     0.08500
H2605       H  0.67183644  0.08999213  0.10893491     0.08500
H2606       H  0.66089075  0.05194251  0.10385949     0.05270
C2607       C  0.90563543  0.40119675  0.34460837    -0.20530
C2608       C  0.87412897  0.40892711  0.35441011    -0.07100
C2609       C  0.86578688  0.43994389  0.35338522     0.13770
C2610       C  0.89003020  0.46133110  0.34994989    -0.20590
C2611       C  0.92196493  0.45297403  0.34985890    -0.07100
C2612       C  0.92969286  0.42278323  0.34228525     0.13760
C2613       C  0.96324681  0.41246109  0.33482613    -0.23940
H2614       H  0.91299542  0.37830693  0.34079575     0.15050
H2615       H  0.88441226  0.48510804  0.35268918     0.15070
C2616       C  0.83238415  0.45185649  0.35766679    -0.23880
H2617       H  0.96343409  0.38907494  0.32388534     0.05290
H2618       H  0.97731609  0.41244125  0.35655108     0.08510
H2619       H  0.97473710  0.42715461  0.31789163     0.08510
H2620       H  0.82122393  0.44584197  0.37994015     0.08500
H2621       H  0.83179092  0.47682347  0.35797753     0.08500
H2622       H  0.81809263  0.44357512  0.33750953     0.05270
C2623       C  0.80466178  0.38974238  0.40737563    -0.20530
C2624       C  0.83668082  0.39534292  0.39853028    -0.07100
C2625       C  0.85705714  0.40402660  0.42482759     0.13770
C2626       C  0.84828972  0.39328663  0.45425463    -0.20590
C2627       C  0.81622263  0.38534794  0.45942805    -0.07100
C2628       C  0.79498827  0.39638351  0.43815852     0.13760
C2629       C  0.76025256  0.40145984  0.44602189    -0.23940
H2630       H  0.78860551  0.37536286  0.39350932     0.15050
H2631       H  0.86566674  0.39156334  0.47249149     0.15070
C2632       C  0.88468925  0.42627487  0.42390101    -0.23880
H2633       H  0.75383184  0.42444610  0.44001517     0.05290
H2634       H  0.75545504  0.39962651  0.47139119     0.08510
H2635       H  0.74492558  0.38496375  0.43238283     0.08510
H2636       H  0.87554352  0.44826955  0.41757475     0.08500
H2637       H  0.90403485  0.41938877  0.40733917     0.08500
H2638       H  0.89571417  0.43013359  0.44730543     0.05270
C2639       C  0.79417320  0.39134497  0.33898413    -0.20530
C2640       C  0.82643677  0.38168955  0.33623078    -0.07100
C2641       C  0.83745257  0.37444182  0.30426621     0.13770
C2642       C  0.81948107  0.38353465  0.27923781    -0.20590
C2643       C  0.79008873  0.39701071  0.28459064    -0.07100
C2644       C  0.77491301  0.39402146  0.31326403     0.13760
C2645       C  0.73953482  0.39944506  0.31756070    -0.23940
H2646       H  0.78449836  0.40339824  0.35922252     0.15050
H2647       H  0.83027042  0.38356068  0.25604434     0.15070
C2648       C  0.86882836  0.36061441  0.29378879    -0.23880
H2649       H  0.73175518  0.39713985  0.34219688     0.05290
H2650       H  0.72616578  0.38239785  0.30253802     0.08510
H2651       H  0.73280237  0.42212471  0.31104247     0.08510
H2652       H  0.88255080  0.35148407  0.31207455     0.08500
H2653       H  0.88396117  0.37751133  0.28237003     0.08500
H2654       H  0.86423587  0.34132629  0.27645837     0.05270
C2655       C  0.89479029  0.35383010  0.38832932    -0.20530
C2656       C  0.86624098  0.35390521  0.37077372    -0.07100
C2657       C  0.85717646  0.32551655  0.35601592     0.13770
C2658       C  0.88156663  0.30527430  0.34686687    -0.20590
C2659       C  0.91340424  0.31229754  0.35497462    -0.07100
C2660       C  0.91935337  0.33423524  0.37912663     0.13760
C2661       C  0.95198965  0.33951718  0.39302935    -0.23940
H2662       H  0.90132166  0.37176023  0.40470298     0.15050
H2663       H  0.87612129  0.28601396  0.33083784     0.15070
C2664       C  0.82325594  0.31640679  0.34860173    -0.23880
H2665       H  0.96106951  0.36223259  0.38783689     0.05290
H2666       H  0.96946787  0.32251448  0.38375810     0.08510
H2667       H  0.95033921  0.33823637  0.41879204     0.08510
H2668       H  0.81991363  0.31418980  0.32287311     0.08500
H2669       H  0.80593640  0.33255581  0.35964424     0.08500
H2670       H  0.81787099  0.29428946  0.35814492     0.05270
C2671       C  0.85010902  0.38461493  0.86500716    -0.02720
C2672       C  0.63114688  0.13876559  0.58385802    -0.02720
C2673       C  0.55954542  0.40746271  0.92424392     0.42230
N2674       N  0.53783440  0.45175911  0.92817386     0.01120
C2675       C  0.51959478  0.03127277  0.57094955    -0.06760
H2676       H  0.94788449  0.44112430  0.56345919     0.06610
C2677       C  0.88628406  0.49784143  0.97663268    -0.07110
Co2678     Co  0.54063031  0.47294003  0.99449338     0.74180
N2679       N  0.98151822  0.45785836  0.53000020    -0.26290
Co2680     Co  0.96939851  0.50269739  0.52532779     0.74070
C2681       C  0.87591967  0.48391337  0.00554318     0.42330
N2682       N  0.95401177  0.49518109  0.91407132     0.00740
N2683       N  0.92694312  0.48999062  0.50476330     0.00480
N2684       N  0.56479081  0.01142928  0.54962050    -0.47130
H2685       H  0.56016097  0.40545868  0.97706237     0.06600
N2686       N  0.50830748  0.44676998  0.51778770     0.01130
N2687       N  0.95691024  0.04834211  0.51939911     0.00870
C2688       C  0.93831780  0.09357553  0.52403807     0.42470
N2689       N  0.98157177  0.48491960  0.90272999    -0.25740
C2690       C  0.60677209  0.00066700  0.96892237    -0.06660
N2691       N  0.55101907  0.43134010  0.90770396    -0.46850
N2692       N  0.94715081  0.06990330  0.54048776    -0.47070
C2693       C  0.61602476  0.01670134  0.94077637     0.42240
N2694       N  0.53963373  0.00262339  0.53336910     0.01110
N2695       N  0.01078829  0.04224487  0.91767491    -0.25760
N2696       N  0.54018365  0.44323272  0.95677584    -0.26260
N2697       N  0.98338971  0.05285795  0.92879485     0.00750
H2698       H  0.04658861  0.05993454  0.88709224     0.06640
H2699       H  0.93330537  0.09495613  0.97122104     0.06680
N2700       N  0.51283084  0.01411063  0.54510246    -0.26310
N2701       N  0.91853477  0.50017400  0.97800245    -0.25920
N2702       N  0.56475382  0.01248871  0.94488918     0.01120
C2703       C  0.49089240  0.41247392  0.54662043     0.42520
C2704       C  0.97692118  0.47029914  0.87490048    -0.07170
N2705       N  0.95238010  0.05616127  0.99067486    -0.25920
H2706       H  0.87168600  0.50783830  0.95961871     0.06660
N2707       N  0.51481176  0.41997653  0.52726342    -0.47140
H2708       H  0.99570773  0.46185242  0.85927721     0.06650
C2709       C  0.00193850  0.08778017  0.90112019     0.42350
C2710       C  0.55180607  0.41568231  0.95654908    -0.06670
Co2711     Co  0.52383730  0.99778942  0.92306111     0.73820
N2712       N  0.93023387  0.48814511  0.89514403    -0.46860
C2713       C  0.55432525  0.03057446  0.57298938     0.42620
N2714       N  0.58812662  0.02383460  0.92844038    -0.46850
Co2715     Co  0.95174401  0.02596749  0.95260215     0.73890
C2716       C  0.94198910  0.08419847  0.99126722    -0.07170
C2717       C  0.96850036  0.43748123  0.54824709    -0.06740
N2718       N  0.57439725  0.99940892  0.96963767    -0.26260
N2719       N  0.90269632  0.48035574  0.52138896    -0.47030
H2720       H  0.00275755  0.04404137  0.58542246     0.06620
C2721       C  0.02453018  0.06289435  0.90026506    -0.07150
Cl2722     Cl  0.99645795  0.99991616  0.97390893    -0.50150
C2723       C  0.94272781  0.47238088  0.86991571     0.42380
H2724       H  0.62202089  0.98836049  0.98353177     0.06590
N2725       N  0.97701712  0.07977610  0.91918905    -0.46860
C2726       C  0.69984326  0.16398025  0.98927345     0.42230
N2727       N  0.72294890  0.20377360  0.01058272     0.01120
C2728       C  0.69979066  0.33526305  0.93797698    -0.06760
H2729       H  0.71816761  0.25614695  0.86752080     0.06610
C2730       C  0.81755888  0.21898545  0.91352345    -0.07110
Co2731     Co  0.69561101  0.25882049  0.98455936     0.74180
N2732       N  0.71415940  0.25542312  0.91747985    -0.26290
Co2733     Co  0.74964594  0.28409868  0.93411327     0.74070
C2734       C  0.79929214  0.21687925  0.88408907     0.42330
N2735       N  0.81501635  0.21392981  0.99095389     0.00740
N2736       N  0.78364543  0.25494380  0.91436831     0.00840
N2737       N  0.66507581  0.31745785  0.97300109    -0.47130
H2738       H  0.66657084  0.19271443  0.96174621     0.06600
N2739       N  0.69171929  0.24611960  0.93644857     0.01130
N2740       N  0.78408201  0.31214263  0.95326445     0.00870
C2741       C  0.80738796  0.35429068  0.96723384     0.42470
N2742       N  0.79417576  0.20404228  0.01137114    -0.25740
C2743       C  0.68940261  0.29796105  0.54804718    -0.06660
N2744       N  0.72312811  0.17397264  0.00920521    -0.46850
N2745       N  0.78189396  0.34129383  0.95290628    -0.47070
C2746       C  0.70752644  0.30180865  0.57733782     0.42240
N2747       N  0.69238951  0.30283887  0.97270007     0.01110
N2748       N  0.79361946  0.26130878  0.54568759    -0.25760
N2749       N  0.70049017  0.21418798  0.99325055    -0.26260
N2750       N  0.81592227  0.27128715  0.52677375     0.00750
H2751       H  0.78939422  0.26044549  0.59558412     0.06640
H2752       H  0.84795587  0.32976197  0.99082087     0.06680
N2753       N  0.71304896  0.31242440  0.95200780    -0.26310
N2754       N  0.80630113  0.24336016  0.93073819    -0.25920
N2755       N  0.72384056  0.26244664  0.54904798     0.01120
C2756       C  0.67509548  0.23353202  0.89008096     0.42520
C2757       C  0.80615380  0.17939653  0.02332499    -0.07170
N2758       N  0.80935865  0.30375961  0.96817004    -0.25920
H2759       H  0.83425396  0.20306170  0.92166728     0.06660
N2760       N  0.66695163  0.23394540  0.92087831    -0.47140
H2761       H  0.79635032  0.16882037  0.04339323     0.06650
C2762       C  0.83204813  0.28391871  0.57337065     0.42350
C2763       C  0.68546960  0.19099443  0.97838797    -0.06670
Co2764     Co  0.75778503  0.23229947  0.52972591     0.73820
N2765       N  0.84121211  0.19760859  0.98884750    -0.46860
C2766       C  0.66768429  0.33840216  0.95181688     0.42620
N2767       N  0.72829468  0.27884303  0.57574368    -0.46850
Co2768     Co  0.81292876  0.25837117  0.97844569     0.73890
C2769       C  0.82638054  0.32900330  0.97720797    -0.07170
C2770       C  0.70597085  0.24838278  0.88792182    -0.06740
N2771       N  0.70132759  0.27335309  0.53199069    -0.26260
N2772       N  0.77892939  0.23994485  0.88704102    -0.47030
H2773       H  0.70873986  0.34417387  0.91665054     0.06620
C2774       C  0.80153909  0.26845972  0.57528025    -0.07150
Cl2775     Cl  0.75415057  0.25844503  0.98184500    -0.50150
C2776       C  0.83781320  0.17532122  0.00853468     0.42380
H2777       H  0.67268029  0.31324443  0.53883365     0.06590
N2778       N  0.84024695  0.28410643  0.54258050    -0.46860
C2779       C  0.60198710  0.24287091  0.77935133     0.42230
N2780       N  0.56383168  0.23427747  0.74707543     0.01120
C2781       C  0.97668513  0.33982275  0.67652219    -0.06760
H2782       H  0.50563528  0.38236010  0.77275262     0.06610
C2783       C  0.93943583  0.27161137  0.81934983    -0.07110
Co2784     Co  0.54618026  0.28915884  0.71494550     0.74180
N2785       N  0.51864364  0.33682494  0.75873860    -0.26290
Co2786     Co  0.97581263  0.31530119  0.74313421     0.74070
C2787       C  0.93915054  0.30184939  0.83364927     0.42330
N2788       N  0.98066494  0.21379429  0.78368870     0.00740
N2789       N  0.96082137  0.30249046  0.78769317     0.00840
N2790       N  0.52340909  0.32174196  0.65854556    -0.47130
H2791       H  0.60734884  0.29217340  0.76660359     0.06600
N2792       N  0.54602908  0.32519891  0.74858447     0.01130
N2793       N  0.93416845  0.29532513  0.72449220     0.00870
C2794       C  0.89720560  0.28547076  0.69068071     0.42470
N2795       N  0.00810333  0.20393284  0.77191010    -0.25740
C2796       C  0.55468123  0.25680509  0.65024044    -0.06660
N2797       N  0.58079436  0.22190455  0.76844346    -0.46850
N2798       N  0.91767967  0.30691321  0.70222005    -0.47070
C2799       C  0.54979692  0.22660106  0.63602494     0.42240
N2800       N  0.51754488  0.31442855  0.68752456     0.01110
N2801       N  0.98005246  0.19390464  0.71144162    -0.25760
N2802       N  0.57234271  0.26256420  0.74343113    -0.26260
N2803       N  0.95272789  0.20499116  0.72202465     0.00750
H2804       H  0.99319147  0.15009586  0.69192666     0.06640
H2805       H  0.89285383  0.23633020  0.70402125     0.06680
N2806       N  0.99071782  0.32449431  0.69825936    -0.26310
N2807       N  0.95232620  0.27417362  0.79112415    -0.25920
N2808       N  0.53620740  0.22736228  0.68456943     0.01120
C2809       C  0.55892355  0.37211066  0.76135875     0.42520
C2810       C  0.51953408  0.18527395  0.79162622    -0.07170
N2811       N  0.92617199  0.26693639  0.72813319    -0.25920
H2812       H  0.92815238  0.25145937  0.82733322     0.06660
N2813       N  0.56990910  0.34512597  0.74989254    -0.47140
H2814       H  0.54095410  0.17232086  0.78705794     0.06650
C2815       C  0.93975732  0.15966722  0.70376706     0.42350
C2816       C  0.59645263  0.27004386  0.76296601    -0.06670
Co2817     Co  0.52224755  0.21478402  0.72835997     0.73820
N2818       N  0.97298566  0.20170191  0.81034054    -0.46860
C2819       C  0.49788624  0.33726992  0.64999198     0.42620
N2820       N  0.53838397  0.20957633  0.65880157    -0.46850
Co2821     Co  0.95243141  0.24021559  0.75640526     0.73890
C2822       C  0.90282012  0.25880883  0.70794429    -0.07170
C2823       C  0.52433431  0.36629543  0.76755858    -0.06740
N2824       N  0.54593325  0.25502748  0.68017774    -0.26260
N2825       N  0.95244483  0.32007196  0.81262849    -0.47030
H2826       H  0.95422428  0.35142924  0.67931351     0.06620
C2827       C  0.97445501  0.16554594  0.69908616    -0.07150
Cl2828     Cl  0.99962846  0.26486043  0.73572330    -0.50150
C2829       C  0.99750551  0.18364130  0.81671511     0.42380
H2830       H  0.56356752  0.27685271  0.64000424     0.06590
N2831       N  0.92867616  0.18555467  0.71806495    -0.46860
C2832       C  0.70078520  0.50606106  0.83564510     0.42230
N2833       N  0.73596615  0.51266127  0.79976651     0.01120
C2834       C  0.71400122  0.07376949  0.65927324    -0.06760
H2835       H  0.65895705  0.45745189  0.67910984     0.06610
C2836       C  0.76277842  0.42268266  0.67009062    -0.07110
Co2837     Co  0.70720534  0.04499441  0.74882348     0.74180
N2838       N  0.68004478  0.49756794  0.70224392    -0.26290
Co2839     Co  0.72092284  0.50691307  0.67488795     0.74070
C2840       C  0.73329050  0.41447839  0.65305292     0.42330
N2841       N  0.79320429  0.46096400  0.73994870     0.00740
N2842       N  0.73189846  0.46119366  0.67026816     0.00840
N2843       N  0.70325681  0.09666649  0.70677101    -0.47130
H2844       H  0.66163295  0.52751091  0.80799324     0.06600
N2845       N  0.67441587  0.51189261  0.72980420     0.01130
N2846       N  0.76291339  0.01444989  0.64822484     0.00870
C2847       C  0.79549896  0.01403337  0.60857760     0.42470
N2848       N  0.78631892  0.47476933  0.76741619    -0.25740
C2849       C  0.73849626  0.10532200  0.78102154    -0.06660
N2850       N  0.73228541  0.50305000  0.82840975    -0.46850
N2851       N  0.76461903  0.01825142  0.61768418    -0.47070
C2852       C  0.76764821  0.11183136  0.79943830     0.42240
N2853       N  0.70723690  0.06737351  0.70824150     0.01110
N2854       N  0.81954563  0.02980156  0.74799970    -0.25760
N2855       N  0.70905358  0.52255053  0.78895414    -0.26260
N2856       N  0.82515253  0.01714053  0.71966579     0.00750
H2857       H  0.84109009  0.06765447  0.77441145     0.06640
H2858       H  0.83607742  0.99680181  0.63752714     0.06680
N2859       N  0.71290643  0.05327962  0.68063416    -0.26310
N2860       N  0.75988094  0.45212109  0.67951478    -0.25920
N2861       N  0.76826513  0.06602176  0.77951861     0.01120
C2862       C  0.63923096  0.47532295  0.72704722     0.42520
C2863       C  0.78126105  0.45417463  0.78795718    -0.07170
N2864       N  0.79056538  0.00639192  0.65915567    -0.25920
H2865       H  0.78386709  0.40936250  0.67258328     0.06660
N2866       N  0.65077252  0.49894666  0.74546777    -0.47140
H2867       H  0.77403075  0.45887326  0.81208189     0.06650
C2868       C  0.86029042  0.05330714  0.72531270     0.42350
C2869       C  0.68574037  0.51948289  0.80985287    -0.06670
Co2870     Co  0.77844386  0.02039827  0.77417181     0.73820
N2871       N  0.79361582  0.43124089  0.74068697    -0.46860
C2872       C  0.70733224  0.10254064  0.67653408     0.42620
N2873       N  0.78449384  0.08622533  0.79730393    -0.46850
Co2874     Co  0.79309868  0.48396349  0.69977219     0.73890
C2875       C  0.81255732  0.00635554  0.63631048    -0.07170
C2876       C  0.65893487  0.47443884  0.69841903    -0.06740
N2877       N  0.74091163  0.07621089  0.76986154    -0.26260
N2878       N  0.71564071  0.43969988  0.65411596    -0.47030
H2879       H  0.71838374  0.06904586  0.63449014     0.06620
C2880       C  0.84091121  0.05219835  0.75380068    -0.07150
Cl2881     Cl  0.74989162  0.51412979  0.72435979    -0.50150
C2882       C  0.78532349  0.42538389  0.77015385     0.42380
H2883       H  0.71764360  0.11913590  0.77931910     0.06590
N2884       N  0.84892469  0.03095664  0.70508518    -0.46860
C2885       C  0.91238759  0.07609438  0.70826548    -0.20530
C2886       C  0.87996945  0.07978631  0.71623096    -0.07100
C2887       C  0.86713304  0.10904830  0.71666528     0.13770
C2888       C  0.88718001  0.13372265  0.71061613    -0.20590
C2889       C  0.92026417  0.13070520  0.70466543    -0.07100
C2890       C  0.93275941  0.10099915  0.70273944     0.13760
C2891       C  0.96742601  0.09493771  0.69577317    -0.23940
H2892       H  0.92212859  0.05362020  0.70753989     0.15050
H2893       H  0.87681173  0.15593789  0.71147371     0.15070
C2894       C  0.83210689  0.11458217  0.72316502    -0.23880
H2895       H  0.97258447  0.07046364  0.69458138     0.05290
H2896       H  0.98230535  0.10589322  0.71465813     0.08510
H2897       H  0.97413764  0.10327536  0.67272588     0.08510
H2898       H  0.82589197  0.11002241  0.74762081     0.08500
H2899       H  0.81742517  0.09988712  0.70681074     0.08500
H2900       H  0.82571758  0.13832805  0.72011971     0.05270
C2901       C  0.61180280  0.39852255  0.75475507    -0.20530
C2902       C  0.57816463  0.40085001  0.75637758    -0.07100
C2903       C  0.56504397  0.42908235  0.74979612     0.13770
C2904       C  0.58546257  0.45309562  0.74121085    -0.20590
C2905       C  0.61878800  0.45000762  0.73849616    -0.07100
C2906       C  0.63201110  0.42237674  0.74594792     0.13760
C2907       C  0.66764855  0.41795519  0.74475693    -0.23940
H2908       H  0.62253423  0.37742466  0.75982604     0.15050
H2909       H  0.57520930  0.47428934  0.73573796     0.15070
C2910       C  0.52964109  0.43418237  0.75068123    -0.23880
H2911       H  0.67422951  0.39548139  0.75221903     0.05290
H2912       H  0.67953527  0.43536679  0.76060634     0.08510
H2913       H  0.67684180  0.41973499  0.72052347     0.08510
H2914       H  0.52030272  0.43201569  0.77478492     0.08500
H2915       H  0.51759377  0.41776223  0.73388071     0.08500
H2916       H  0.52369404  0.45711860  0.74406701     0.05270
C2917       C  0.70469221  0.35813635  0.58676318    -0.20530
C2918       C  0.71254909  0.33026820  0.59802932    -0.07100
C2919       C  0.72679950  0.33047096  0.62799577     0.13770
C2920       C  0.73333057  0.35812951  0.64517311    -0.20590
C2921       C  0.72560052  0.38588694  0.63375242    -0.07100
C2922       C  0.71099490  0.38573598  0.60403597     0.13760
C2923       C  0.70316683  0.41462073  0.58957460    -0.23940
H2924       H  0.69423852  0.35853344  0.56383815     0.15050
H2925       H  0.74433418  0.35806467  0.66791754     0.15070
C2926       C  0.73465827  0.30165992  0.64252963    -0.23880
H2927       H  0.69387141  0.41038848  0.56548736     0.05290
H2928       H  0.72500060  0.42897875  0.58819308     0.08510
H2929       H  0.68449003  0.42688217  0.60373968     0.08510
H2930       H  0.75392591  0.28978916  0.62894374     0.08500
H2931       H  0.71304233  0.28694865  0.64320455     0.08500
H2932       H  0.74320524  0.30595606  0.66688516     0.05270
C2933       C  0.77285330  0.16759347  0.81142701    -0.20530
C2934       C  0.77568034  0.13845545  0.82148542    -0.07100
C2935       C  0.78722038  0.13522415  0.85211264     0.13770
C2936       C  0.79582925  0.16097845  0.87148447    -0.20590
C2937       C  0.79315514  0.19017154  0.86141984    -0.07100
C2938       C  0.78158841  0.19336756  0.83075769     0.13760
C2939       C  0.77910410  0.22387266  0.81777482    -0.23940
H2940       H  0.76422550  0.17019244  0.78804690     0.15050
H2941       H  0.80388791  0.15825653  0.89502486     0.15070
C2942       C  0.78928360  0.10474090  0.86521609    -0.23880
H2943       H  0.77209234  0.22199854  0.79279776     0.05290
H2944       H  0.80254560  0.23583252  0.81941929     0.08510
H2945       H  0.76070540  0.23747397  0.83083084     0.08510
H2946       H  0.80752676  0.09093956  0.85210754     0.08500
H2947       H  0.76567289  0.09305972  0.86365239     0.08500
H2948       H  0.79629632  0.10658213  0.89019492     0.05270
C2949       C  0.62751489  0.25192812  0.86418664    -0.20530
C2950       C  0.65282847  0.23162927  0.86375507    -0.07100
C2951       C  0.66043685  0.21426177  0.83585151     0.13770
C2952       C  0.64324866  0.21837900  0.80866432    -0.20590
C2953       C  0.61933392  0.24003471  0.80859211    -0.07100
C2954       C  0.61062748  0.25640471  0.83683777     0.13760
C2955       C  0.58344294  0.27830791  0.83831591    -0.23940
H2956       H  0.62201074  0.26539677  0.88555134     0.15050
H2957       H  0.64896689  0.20512285  0.78716238     0.15070
C2958       C  0.68679624  0.19146565  0.83474170    -0.23880
H2959       H  0.57923036  0.28829649  0.86250179     0.05290
H2960       H  0.56113398  0.26654294  0.83031821     0.08510
H2961       H  0.58889734  0.29701626  0.82319923     0.08510
H2962       H  0.68176185  0.17464783  0.85219692     0.08500
H2963       H  0.71003216  0.20279106  0.84007560     0.08500
H2964       H  0.68901952  0.17925957  0.81130701     0.05270
C2965       C  0.85442068  0.31212929  0.61977550    -0.20530
C2966       C  0.85421434  0.28583173  0.59982175    -0.07100
C2967       C  0.86883504  0.25965432  0.60940824     0.13770
C2968       C  0.88278368  0.26025437  0.63904320    -0.20590
C2969       C  0.88227390  0.28632546  0.65952441    -0.07100
C2970       C  0.86841702  0.31280291  0.64947740     0.13760
C2971       C  0.86694975  0.34142930  0.67043162    -0.23940
H2972       H  0.84231054  0.33183970  0.61262727     0.15050
H2973       H  0.89396235  0.24011470  0.64627308     0.15070
C2974       C  0.86900924  0.23081119  0.58868916    -0.23880
H2975       H  0.85377502  0.35931900  0.65941117     0.05290
H2976       H  0.89140519  0.35023318  0.67536015     0.08510
H2977       H  0.85455339  0.33699650  0.69276084     0.08510
H2978       H  0.88091092  0.23492640  0.56607421     0.08500
H2979       H  0.84422328  0.22259376  0.58428308     0.08500
H2980       H  0.88205708  0.21269239  0.59946174     0.05270
C2981       C  0.92181646  0.14578478  0.02199954    -0.20530
C2982       C  0.91487930  0.11743082  0.53301730    -0.07100
C2983       C  0.88299186  0.11018870  0.04048747     0.13770
C2984       C  0.85834434  0.13008927  0.03379438    -0.20590
C2985       C  0.86494028  0.15693918  0.01912040    -0.07100
C2986       C  0.89750611  0.16544381  0.01463728     0.13760
C2987       C  0.90741272  0.19463483  0.00112374    -0.23940
H2988       H  0.94629237  0.15121283  0.51608415     0.15050
H2989       H  0.83372782  0.12367873  0.03826395     0.15070
C2990       C  0.87469205  0.08052255  0.55361861    -0.23880
H2991       H  0.93373117  0.19811055  0.00133441     0.05290
H2992       H  0.89668311  0.21395266  0.01508020     0.08510
H2993       H  0.89992312  0.19450951  0.97637557     0.08510
H2994       H  0.88797228  0.07843008  0.57558651     0.08500
H2995       H  0.88114980  0.06165652  0.03643111     0.08500
H2996       H  0.84905633  0.07882256  0.05919426     0.05270
C2997       C  0.64470841  0.38172074  0.92649902    -0.20530
C2998       C  0.63986357  0.35343093  0.93830238    -0.07100
C2999       C  0.60858790  0.34053488  0.93721541     0.13770
C3000       C  0.58298868  0.35735147  0.92689093    -0.20590
C3001       C  0.58730128  0.38708996  0.91851356    -0.07100
C3002       C  0.61882018  0.39882932  0.91748482     0.13760
C3003       C  0.62489327  0.43039428  0.90936262    -0.23940
H3004       H  0.66858872  0.39147872  0.92657156     0.15050
H3005       H  0.55886788  0.34831905  0.92840080     0.15070
C3006       C  0.60152667  0.30942590  0.94758284    -0.23880
H3007       H  0.65080456  0.43607283  0.90851040     0.05290
H3008       H  0.61323176  0.44614369  0.92707186     0.08510
H3009       H  0.61463684  0.43297694  0.88608599     0.08510
H3010       H  0.60501241  0.30898748  0.47285717     0.08500
H3011       H  0.61749417  0.29287076  0.93497818     0.08500
H3012       H  0.57648305  0.30220723  0.94268601     0.05270
C3013       C  0.63156309  0.99385343  0.88882121    -0.20530
C3014       C  0.64169173  0.00796741  0.91751005    -0.07100
C3015       C  0.67404663  0.01691943  0.92048101     0.13770
C3016       C  0.69484718  0.01314421  0.89409098    -0.20590
C3017       C  0.68372337  0.50023959  0.86513754    -0.07100
C3018       C  0.65219881  0.98879926  0.86328677     0.13760
C3019       C  0.63901529  0.97219763  0.83405273    -0.23940
H3020       H  0.60680898  0.98677285  0.88602758     0.15050
H3021       H  0.71879979  0.52239194  0.89544788     0.15070
C3022       C  0.68588394  0.03223129  0.95059388    -0.23880
H3023       H  0.62848305  0.95023045  0.83967190     0.05290
H3024       H  0.65781004  0.46671879  0.81583264     0.08510
H3025       H  0.62009426  0.98576057  0.82410619     0.08510
H3026       H  0.68243991  0.01696150  0.96981654     0.08500
H3027       H  0.67237277  0.05323377  0.95632855     0.08500
H3028       H  0.71166979  0.03820521  0.94897877     0.05270
C3029       C  0.81893530  0.47433589  0.57235296    -0.20530
C3030       C  0.80612428  0.00329137  0.57645996    -0.07100
C3031       C  0.80827040  0.52234502  0.55156000     0.13770
C3032       C  0.82856049  0.51431276  0.52564714    -0.20590
C3033       C  0.84534964  0.48699396  0.52391056    -0.07100
C3034       C  0.83818899  0.46583061  0.54629109     0.13760
C3035       C  0.85198177  0.43457344  0.54356282    -0.23940
H3036       H  0.81565525  0.45891782  0.59068833     0.15050
H3037       H  0.83319899  0.53036857  0.50819959     0.15070
C3038       C  0.79040361  0.05145863  0.55301667    -0.23880
H3039       H  0.84243276  0.42056739  0.56213554     0.05290
H3040       H  0.87831909  0.43542007  0.54576770     0.08510
H3041       H  0.84559138  0.42317549  0.52059961     0.08510
H3042       H  0.79709862  0.06582836  0.57420546     0.08500
H3043       H  0.76427959  0.54653480  0.55421872     0.08500
H3044       H  0.79524917  0.56427001  0.53214067     0.05270
C3045       C  0.52407381  0.36499406  0.60876305    -0.20530
C3046       C  0.49589688  0.35250615  0.62058296    -0.07100
C3047       C  0.96689415  0.35653451  0.60500496     0.13770
C3048       C  0.96609154  0.37600792  0.58069150    -0.20590
C3049       C  0.49391542  0.39001754  0.57022289    -0.07100
C3050       C  0.52361862  0.38360821  0.58372740     0.13760
C3051       C  0.55483225  0.39736667  0.57334751    -0.23940
H3052       H  0.54650362  0.36126180  0.62011956     0.15050
H3053       H  0.94347078  0.38021732  0.56989313     0.15070
C3054       C  0.93633471  0.34031036  0.61294706    -0.23880
H3055       H  0.57518804  0.39060386  0.58752544     0.05290
H3056       H  0.55357284  0.42232845  0.57592711     0.08510
H3057       H  0.56015779  0.38971188  0.54862933     0.08510
H3058       H  0.91855271  0.35686760  0.62252642     0.08500
H3059       H  0.93964966  0.32293948  0.62983500     0.08500
H3060       H  0.92658056  0.32843581  0.59139994     0.05270
C3061       C  0.99322455  0.14151268  0.89117133    -0.20530
C3062       C  0.00019437  0.11205539  0.87918545    -0.07100
C3063       C  0.00324234  0.10604744  0.84638636     0.13770
C3064       C  0.00154416  0.12989107  0.82677796    -0.20590
C3065       C  0.99602766  0.15950350  0.83880194    -0.07100
C3066       C  0.99111772  0.16535766  0.87130441     0.13760
C3067       C  0.98468920  0.19679214  0.88504267    -0.23940
H3068       H  0.98990328  0.14594107  0.91620472     0.15050
H3069       H  0.50360645  0.12571549  0.80197693     0.15070
C3070       C  0.50656280  0.07479503  0.83162292    -0.23880
H3071       H  0.98196762  0.19756072  0.91091576     0.05290
H3072       H  0.96230252  0.20510983  0.87531945     0.08510
H3073       H  0.00481867  0.21204151  0.87924173     0.08510
H3074       H  0.98750105  0.05967833  0.84000511     0.08500
H3075       H  0.53023379  0.06594755  0.83714772     0.08500
H3076       H  0.50510159  0.07424990  0.80571666     0.05270
C3077       C  0.63963633  0.13920161  0.64221517    -0.20530
C3078       C  0.65362112  0.14319542  0.61255069    -0.07100
C3079       C  0.68721762  0.14949319  0.61212366     0.13770
C3080       C  0.70562246  0.13891871  0.63607290    -0.20590
C3081       C  0.69091545  0.12672927  0.66196728    -0.07100
C3082       C  0.65790811  0.13086106  0.66708918     0.13760
C3083       C  0.64106939  0.12263237  0.69672299    -0.23940
H3084       H  0.61403760  0.13895482  0.64503492     0.15050
H3085       H  0.73142706  0.13856393  0.63364315     0.15070
C3086       C  0.70474306  0.16751269  0.58852310    -0.23880
H3087       H  0.61536188  0.12843993  0.69676972     0.05290
H3088       H  0.65213940  0.13519122  0.71720858     0.08510
H3089       H  0.64249289  0.09802563  0.69915864     0.08510
H3090       H  0.68897268  0.17755463  0.57180331     0.08500
H3091       H  0.72270128  0.15326176  0.57546706     0.08500
H3092       H  0.71757992  0.18664302  0.60107645     0.05270
C3093       C  0.61759451  0.19376444  0.59179245    -0.20530
C3094       C  0.60597616  0.16373030  0.59062072    -0.07100
C3095       C  0.57263528  0.15933479  0.59815524     0.13770
C3096       C  0.55276146  0.18411387  0.59939388    -0.20590
C3097       C  0.56576441  0.21223506  0.60836670    -0.07100
C3098       C  0.59828880  0.21801736  0.60176699     0.13760
C3099       C  0.61339017  0.24890244  0.60651616    -0.23940
H3100       H  0.64248448  0.19812745  0.58674960     0.15050
H3101       H  0.52739003  0.18046090  0.60369213     0.15070
C3102       C  0.55698457  0.13224196  0.61215899    -0.23880
H3103       H  0.63815582  0.24936740  0.59688033     0.05290
H3104       H  0.61490198  0.25582411  0.63182022     0.08510
H3105       H  0.59933827  0.26535380  0.59427853     0.08510
H3106       H  0.57342611  0.11549716  0.62013654     0.08500
H3107       H  0.53931716  0.12149926  0.59569047     0.08500
H3108       H  0.54372000  0.13976208  0.63392941     0.05270
C3109       C  0.64788070  0.14225045  0.49468555    -0.20530
C3110       C  0.68092330  0.13637881  0.99397104    -0.07100
C3111       C  0.69158330  0.11858566  0.01713417     0.13770
C3112       C  0.67416885  0.11980919  0.54571165    -0.20590
C3113       C  0.64802599  0.13971123  0.55136454    -0.07100
C3114       C  0.63429072  0.15131678  0.52387714     0.13760
C3115       C  0.60806704  0.17449750  0.52318744    -0.23940
H3116       H  0.63750569  0.14980715  0.47361616     0.15050
H3117       H  0.68272840  0.10662315  0.56387220     0.15070
C3118       C  0.72209398  0.10131998  0.01281586    -0.23880
H3119       H  0.60109501  0.17837224  0.49889161     0.05290
H3120       H  0.61706887  0.19661542  0.53304970     0.08510
H3121       H  0.58566239  0.16813606  0.53502730     0.08510
H3122       H  0.74247603  0.11679969  0.00862183     0.08500
H3123       H  0.71990136  0.08467711  0.99239447     0.08500
H3124       H  0.72739431  0.08898607  0.03375402     0.05270
C3125       C  0.59130768  0.10380466  0.55755996    -0.20530
C3126       C  0.61519659  0.10712896  0.58045992    -0.07100
C3127       C  0.62140989  0.08136950  0.59765602     0.13770
C3128       C  0.59862980  0.05811509  0.59735501    -0.20590
C3129       C  0.57264373  0.05792958  0.57751841    -0.07100
C3130       C  0.57001483  0.08000909  0.55578862     0.13760
C3131       C  0.54484328  0.07933179  0.53062276    -0.23940
H3132       H  0.58710808  0.12126482  0.54233184     0.15050
H3133       H  0.60242187  0.03878713  0.61092286     0.15070
C3134       C  0.65202236  0.07453559  0.61344841    -0.23880
H3135       H  0.54738213  0.09861045  0.51559710     0.05290
H3136       H  0.02088220  0.08048240  0.54116136     0.08510
H3137       H  0.54692428  0.05859506  0.51486153     0.08510
H3138       H  0.64763595  0.07341319  0.63894351     0.08500
H3139       H  0.67166688  0.09022131  0.60920085     0.08500
H3140       H  0.66072316  0.05218452  0.60402955     0.05270
C3141       C  0.90579635  0.40106540  0.84463758    -0.20530
C3142       C  0.87428761  0.40885741  0.85438400    -0.07100
C3143       C  0.86601622  0.43988564  0.85331866     0.13770
C3144       C  0.89031091  0.46122552  0.84989643    -0.20590
C3145       C  0.92222993  0.45281575  0.84987014    -0.07100
C3146       C  0.92991184  0.42260549  0.84236356     0.13760
C3147       C  0.96346637  0.41222547  0.83500895    -0.23940
H3148       H  0.91310954  0.37816120  0.84084115     0.15050
H3149       H  0.88473632  0.48501371  0.85259448     0.15070
C3150       C  0.83263131  0.45185590  0.85753581    -0.23880
H3151       H  0.96365751  0.38878375  0.82421785     0.05290
H3152       H  0.97751070  0.41233108  0.85675845     0.08510
H3153       H  0.97498730  0.42681153  0.81799113     0.08510
H3154       H  0.82141541  0.44585338  0.87978907     0.08500
H3155       H  0.83209079  0.47682484  0.85784944     0.08500
H3156       H  0.81836481  0.44360024  0.83734692     0.05270
C3157       C  0.80473921  0.38972061  0.90732259    -0.20530
C3158       C  0.83675945  0.39534241  0.89849257    -0.07100
C3159       C  0.85712193  0.40402047  0.92480213     0.13770
C3160       C  0.84833039  0.39328854  0.95422852    -0.20590
C3161       C  0.81626007  0.38534657  0.95938362    -0.07100
C3162       C  0.79503882  0.39636329  0.93809411     0.13760
C3163       C  0.76029634  0.40143983  0.94592785    -0.23940
H3164       H  0.78868535  0.37535850  0.89343310     0.15050
H3165       H  0.86570023  0.39154908  0.97246894     0.15070
C3166       C  0.88481202  0.42620243  0.92387193    -0.23880
H3167       H  0.75387153  0.42441124  0.93987630     0.05290
H3168       H  0.75548516  0.39964699  0.97130098     0.08510
H3169       H  0.74498265  0.38491742  0.93230659     0.08510
H3170       H  0.87573599  0.44820823  0.91750080     0.08500
H3171       H  0.90415938  0.41923973  0.90734210     0.08500
H3172       H  0.89581664  0.43006711  0.94728491     0.05270
C3173       C  0.79426542  0.39142412  0.83898615    -0.20530
C3174       C  0.82651315  0.38172921  0.83620631    -0.07100
C3175       C  0.83749766  0.37447209  0.80423483     0.13770
C3176       C  0.81949689  0.38355085  0.77921896    -0.20590
C3177       C  0.79010288  0.39702024  0.78459427    -0.07100
C3178       C  0.77496572  0.39405561  0.81328979     0.13760
C3179       C  0.73959171  0.39947888  0.81763126    -0.23940
H3180       H  0.78463495  0.40352287  0.85922163     0.15050
H3181       H  0.83026204  0.38356884  0.75601464     0.15070
C3182       C  0.86886985  0.36065120  0.79373984    -0.23880
H3183       H  0.73185189  0.39720244  0.84228375     0.05290
H3184       H  0.72620368  0.38241242  0.80264970     0.08510
H3185       H  0.73284123  0.42214723  0.81109364     0.08510
H3186       H  0.88259730  0.35151995  0.81202132     0.08500
H3187       H  0.88399456  0.37755320  0.78232003     0.08500
H3188       H  0.86427355  0.34136431  0.77640891     0.05270
C3189       C  0.89476192  0.35371307  0.88834716    -0.20530
C3190       C  0.86625040  0.35385418  0.87074191    -0.07100
C3191       C  0.85717957  0.32549767  0.85591717     0.13770
C3192       C  0.88156518  0.30525797  0.84675085    -0.20590
C3193       C  0.91339488  0.31224595  0.85491441    -0.07100
C3194       C  0.91932462  0.33412288  0.87913127     0.13760
C3195       C  0.95194393  0.33935458  0.89308502    -0.23940
H3196       H  0.90128066  0.37161198  0.90478946     0.15050
H3197       H  0.87612782  0.28603051  0.83067299     0.15070
C3198       C  0.82325936  0.31641936  0.84846417    -0.23880
H3199       H  0.96104447  0.36208276  0.88796405     0.05290
H3200       H  0.96942309  0.32236343  0.88379151     0.08510
H3201       H  0.95025750  0.33801125  0.91883832     0.08510
H3202       H  0.81993694  0.31423904  0.82273239     0.08500
H3203       H  0.80594318  0.33256643  0.85951610     0.08500
H3204       H  0.81784980  0.29428978  0.85797019     0.05270
C3205       C  0.85000411  0.88468209  0.36503349    -0.02720
C3206       C  0.63127090  0.63842544  0.08340783    -0.02720
C3207       C  0.55982407  0.90782373  0.42434394     0.42230
N3208       N  0.53816633  0.95213495  0.42834199     0.01120
C3209       C  0.51963564  0.53105658  0.07076161    -0.06760
H3210       H  0.94803722  0.94118790  0.06348037     0.06610
C3211       C  0.88618930  0.99794257  0.47663790    -0.07110
Co3212     Co  0.54084711  0.97324388  0.49467763     0.74180
N3213       N  0.98167186  0.95789459  0.03000536    -0.26290
Co3214     Co  0.96954975  0.00272857  0.02529378     0.74070
C3215       C  0.87581976  0.98402021  0.50554820     0.42330
N3216       N  0.95383058  0.99523967  0.41406104     0.00740
N3217       N  0.92709689  0.98999862  0.00474185     0.00480
N3218       N  0.56474385  0.51108736  0.04937517    -0.47130
H3219       H  0.56043451  0.90573896  0.47716086     0.06600
N3220       N  0.50837793  0.94671308  0.01764433     0.01130
N3221       N  0.95692082  0.54825952  0.01941581     0.00870
C3222       C  0.93830672  0.59348718  0.02404760     0.42470
N3223       N  0.98136320  0.98492697  0.40271320    -0.25740
C3224       C  0.60677789  0.50057817  0.46896540    -0.06660
N3225       N  0.55131625  0.93172731  0.40784005    -0.46850
N3226       N  0.94714717  0.56981834  0.04050298    -0.47070
C3227       C  0.61603411  0.51659486  0.44080485     0.42240
N3228       N  0.53953700  0.50232495  0.03317752     0.01110
N3229       N  0.01067025  0.54227878  0.41773945    -0.25760
N3230       N  0.54050048  0.94356944  0.45693103    -0.26260
N3231       N  0.98326725  0.55288424  0.42885607     0.00750
H3232       H  0.04646774  0.55997705  0.38715942     0.06640
H3233       H  0.93319528  0.59496298  0.47129303     0.06680
N3234       N  0.51278159  0.51387850  0.04494711    -0.26310
N3235       N  0.91843708  0.00028763  0.47802308    -0.25920
N3236       N  0.56476373  0.51238381  0.44492035     0.01120
C3237       C  0.49101738  0.91230773  0.04636182     0.42520
C3238       C  0.97669375  0.97035223  0.37486861    -0.07170
N3239       N  0.95225023  0.55615399  0.49073490    -0.25920
H3240       H  0.87159521  0.00791319  0.45960288     0.06660
N3241       N  0.51491005  0.91988959  0.02701704    -0.47140
H3242       H  0.99547418  0.96190542  0.35923933     0.06650
C3243       C  0.00181170  0.58781361  0.40118608     0.42350
C3244       C  0.55210835  0.91600994  0.45666453    -0.06670
Co3245     Co  0.52383643  0.49770703  0.42310875     0.73820
N3246       N  0.93004395  0.98827327  0.39511843    -0.46860
C3247       C  0.55437131  0.53028305  0.07274031     0.42620
N3248       N  0.58813684  0.52371462  0.42846165    -0.46850
Co3249     Co  0.95161662  0.52598047  0.45264546     0.73890
C3250       C  0.94186838  0.58419401  0.49133657    -0.07170
C3251       C  0.96865342  0.93753318  0.04827121    -0.06740
N3252       N  0.57440056  0.49932603  0.46968352    -0.26260
N3253       N  0.90285987  0.98034840  0.02136822    -0.47030
H3254       H  0.00273320  0.54401352  0.08543590     0.06620
C3255       C  0.02440963  0.56293302  0.40033370    -0.07150
Cl3256     Cl  0.99632626  0.49991975  0.47394826    -0.50150
C3257       C  0.94251396  0.97250696  0.36987480     0.42380
H3258       H  0.62202634  0.48829273  0.48359459     0.06590
N3259       N  0.97688922  0.57980130  0.41924976    -0.46860
C3260       C  0.69980357  0.66404124  0.48919747     0.42230
N3261       N  0.72290468  0.70384263  0.51049120     0.01120
C3262       C  0.69991193  0.83534176  0.43785960    -0.06760
H3263       H  0.71831318  0.75615999  0.36739774     0.06610
C3264       C  0.81758856  0.71897616  0.41349195    -0.07110
Co3265     Co  0.69561345  0.75888333  0.48442003     0.74180
N3266       N  0.71422330  0.75547018  0.41735524    -0.26290
Co3267     Co  0.74971224  0.78413029  0.43400841     0.74070
C3268       C  0.79934701  0.71687528  0.38404159     0.42330
N3269       N  0.81498593  0.71395033  0.49092486     0.00740
N3270       N  0.78370778  0.75495820  0.41429718     0.00840
N3271       N  0.66514684  0.81755067  0.47285164    -0.47130
H3272       H  0.66656118  0.69276207  0.46161843     0.06600
N3273       N  0.69175615  0.74617397  0.43629998     0.01130
N3274       N  0.78414988  0.81216106  0.45316634     0.00870
C3275       C  0.80743783  0.85430246  0.46718007     0.42470
N3276       N  0.79412507  0.70407958  0.51133239    -0.25740
C3277       C  0.68949249  0.79801224  0.04801897    -0.06660
N3278       N  0.72307629  0.67404348  0.50913658    -0.46850
N3279       N  0.78197123  0.84131197  0.45280015    -0.47070
C3280       C  0.70763448  0.80187656  0.07729868     0.42240
N3281       N  0.69243834  0.80289763  0.47254997     0.01110
N3282       N  0.79369846  0.76134079  0.04563347    -0.25760
N3283       N  0.70046370  0.71425088  0.49313332    -0.26260
N3284       N  0.81599877  0.77129452  0.02670254     0.00750
H3285       H  0.78949031  0.76051682  0.09553319     0.06640
H3286       H  0.84795633  0.82977233  0.49083914     0.06680
N3287       N  0.71312496  0.81247423  0.45187770    -0.26310
N3288       N  0.80633820  0.74336442  0.43069047    -0.25920
N3289       N  0.72392226  0.76249079  0.04902663     0.01120
C3290       C  0.67520854  0.73355992  0.38991175     0.42520
C3291       C  0.80607858  0.67943110  0.52330168    -0.07170
N3292       N  0.80939837  0.80377438  0.46811334    -0.25920
H3293       H  0.83426080  0.70304187  0.42165474     0.06660
N3294       N  0.66701154  0.73398553  0.42069871    -0.47140
H3295       H  0.79625385  0.66886455  0.54336664     0.06650
C3296       C  0.83214057  0.78396172  0.07328387     0.42350
C3297       C  0.68544635  0.69105029  0.47827700    -0.06670
Co3298     Co  0.75785741  0.73232687  0.02970936     0.73820
N3299       N  0.84117225  0.69761556  0.48883986    -0.46860
C3300       C  0.66780641  0.83850952  0.45168924     0.42620
N3301       N  0.72839544  0.77890490  0.07570865    -0.46850
Co3302     Co  0.81293479  0.75838717  0.47840252     0.73890
C3303       C  0.82640996  0.82901564  0.47718306    -0.07170
C3304       C  0.70607929  0.74841760  0.38778855    -0.06740
N3305       N  0.70140066  0.77338940  0.03197351    -0.26260
N3306       N  0.77900378  0.73995620  0.38696994    -0.47030
H3307       H  0.70889204  0.84426640  0.41655152     0.06620
C3308       C  0.80162845  0.76851421  0.07521789    -0.07150
Cl3309     Cl  0.75415598  0.75848672  0.48175385    -0.50150
C3310       C  0.83774506  0.67533567  0.50853206     0.42380
H3311       H  0.67276948  0.81329317  0.03880236     0.06590
N3312       N  0.84033264  0.78411921  0.04249019    -0.46860
C3313       C  0.60265987  0.74255293  0.27877163     0.42230
N3314       N  0.56456675  0.73390990  0.24642185     0.01120
C3315       C  0.97671314  0.83983744  0.17653954    -0.06760
H3316       H  0.50642598  0.88191993  0.27256019     0.06610
C3317       C  0.93928964  0.77163323  0.31933647    -0.07110
Co3318     Co  0.54686437  0.78882915  0.21433971     0.74180
N3319       N  0.51946384  0.83646705  0.25825902    -0.26290
Co3320     Co  0.97576275  0.81530713  0.24314832     0.74070
C3321       C  0.93903074  0.80187173  0.33363983     0.42330
N3322       N  0.98054834  0.71379446  0.28370084     0.00740
N3323       N  0.96072735  0.80249877  0.28769504     0.00840
N3324       N  0.52390083  0.82141295  0.15801029    -0.47130
H3325       H  0.60799206  0.79185061  0.26600816     0.06600
N3326       N  0.54682485  0.82488700  0.24797926     0.01130
N3327       N  0.93413312  0.79533946  0.22447051     0.00870
C3328       C  0.89720286  0.78549638  0.19062494     0.42470
N3329       N  0.00798862  0.70392339  0.27193550    -0.25740
C3330       C  0.55503116  0.75648501  0.14959730    -0.06660
N3331       N  0.58149482  0.72157101  0.26783909    -0.46850
N3332       N  0.91767120  0.80693345  0.20218428    -0.47070
C3333       C  0.55003347  0.72630210  0.13537375     0.42240
N3334       N  0.51814576  0.81411603  0.18701262     0.01110
N3335       N  0.97999980  0.69391984  0.21144019    -0.25760
N3336       N  0.57307038  0.76220009  0.24276840    -0.26260
N3337       N  0.95266841  0.70500225  0.22201003     0.00750
H3338       H  0.99316122  0.65011331  0.19194337     0.06640
H3339       H  0.89282212  0.73635430  0.20395514     0.06680
N3340       N  0.99071785  0.82450145  0.19828760    -0.26310
N3341       N  0.95220868  0.77418592  0.29111960    -0.25920
N3342       N  0.53672892  0.72702947  0.18398972     0.01120
C3343       C  0.55968099  0.87177438  0.26090210     0.42520
C3344       C  0.52033446  0.68485117  0.29109705    -0.07170
N3345       N  0.92612329  0.76695223  0.22810266    -0.25920
H3346       H  0.92799183  0.75148688  0.32731727     0.06660
N3347       N  0.57068254  0.84484208  0.24927634    -0.47140
H3348       H  0.54170739  0.67183976  0.28648292     0.06650
C3349       C  0.93971955  0.65967293  0.20375224     0.42350
C3350       C  0.59714498  0.76970298  0.26233899    -0.06670
Co3351     Co  0.52291917  0.71442754  0.22781435     0.73820
N3352       N  0.97285183  0.70170641  0.31035142    -0.46860
C3353       C  0.49834160  0.83693716  0.14954085     0.42620
N3354       N  0.53873391  0.70926752  0.15819112    -0.46850
Co3355     Co  0.95234473  0.74022488  0.25639690     0.73890
C3356       C  0.90279045  0.75883096  0.20789063    -0.07170
C3357       C  0.52513490  0.86590290  0.26720135    -0.06740
N3358       N  0.54645987  0.75469022  0.17957703    -0.26260
N3359       N  0.95235381  0.82008562  0.31262747    -0.47030
H3360       H  0.95425222  0.85144645  0.17931135     0.06620
C3361       C  0.97441610  0.66555982  0.19908514    -0.07150
Cl3362     Cl  0.99956803  0.76486289  0.23575682    -0.50150
C3363       C  0.99736279  0.68363930  0.31673822     0.42380
H3364       H  0.56385569  0.77653691  0.13932737     0.06590
N3365       N  0.92862397  0.68555934  0.21804045    -0.46860
C3366       C  0.70078963  0.00613277  0.33559473     0.42230
N3367       N  0.73602265  0.01270250  0.29974602     0.01120
C3368       C  0.71401074  0.57365776  0.15918210    -0.06760
H3369       H  0.65926358  0.95755874  0.17891312     0.06610
C3370       C  0.76293265  0.92274582  0.17004975    -0.07110
Co3371     Co  0.70721703  0.54498744  0.24878842     0.74180
N3372       N  0.68026791  0.99768071  0.20210559    -0.26290
Co3373     Co  0.72116615  0.00702421  0.17481932     0.74070
C3374       C  0.73346802  0.91457642  0.15295609     0.42330
N3375       N  0.79328370  0.96097932  0.23996950     0.00740
N3376       N  0.73210938  0.96129364  0.17017670     0.00840
N3377       N  0.70320197  0.59661775  0.20663886    -0.47130
H3378       H  0.66170059  0.02761701  0.30788758     0.06600
N3379       N  0.67461311  0.01196552  0.22968060     0.01130
N3380       N  0.76297501  0.51438104  0.14822383     0.00870
C3381       C  0.79558010  0.51395553  0.10858915     0.42470
N3382       N  0.78636803  0.97478404  0.26743019    -0.25740
C3383       C  0.73850793  0.60532612  0.28097384    -0.06660
N3384       N  0.73229821  0.00311204  0.32839436    -0.46850
N3385       N  0.76469398  0.51816773  0.11768005    -0.47070
C3386       C  0.76765277  0.61183466  0.29940353     0.42240
N3387       N  0.70724529  0.56733748  0.20816974     0.01110
N3388       N  0.81956212  0.52978952  0.24802366    -0.25760
N3389       N  0.70913357  0.02260331  0.28889736    -0.26260
N3390       N  0.82518160  0.51712106  0.21969574     0.00750
H3391       H  0.84109283  0.56765102  0.27443249     0.06640
H3392       H  0.83615003  0.49675243  0.13756967     0.06680
N3393       N  0.71294108  0.55321050  0.18058334    -0.26310
N3394       N  0.76005783  0.95218703  0.17947349    -0.25920
N3395       N  0.76826822  0.56602103  0.27949741     0.01120
C3396       C  0.63950861  0.97533914  0.22685842     0.42520
C3397       C  0.78122492  0.95418692  0.28795218    -0.07170
N3398       N  0.79062470  0.50633878  0.15917227    -0.25920
H3399       H  0.78399569  0.90940059  0.17258165     0.06660
N3400       N  0.65099981  0.99895420  0.24532169    -0.47140
H3401       H  0.77393893  0.95888828  0.31205993     0.06650
C3402       C  0.86031163  0.55329239  0.22534398     0.42350
C3403       C  0.68579213  0.01955738  0.30977378    -0.06670
Co3404     Co  0.77844852  0.52039647  0.27418067     0.73820
N3405       N  0.79364248  0.93125345  0.24070139    -0.46860
C3406       C  0.70728584  0.60244019  0.17638410     0.42620
N3407       N  0.78449215  0.58622606  0.29728442    -0.46850
Co3408     Co  0.79326739  0.98399572  0.19979474     0.73890
C3409       C  0.81262728  0.50629703  0.13633608    -0.07170
C3410       C  0.65919798  0.97453132  0.19823478    -0.06740
N3411       N  0.74092184  0.57621178  0.26982205    -0.26260
N3412       N  0.71585404  0.93981953  0.15399216    -0.47030
H3413       H  0.71839285  0.56889336  0.13440483     0.06620
C3414       C  0.84092358  0.55218891  0.25382633    -0.07150
Cl3415     Cl  0.75005975  0.01418964  0.22434007    -0.50150
C3416       C  0.78527761  0.92539444  0.27015162     0.42380
H3417       H  0.71765828  0.61914195  0.27926135     0.06590
N3418       N  0.84895684  0.53093528  0.20511884    -0.46860
C3419       C  0.91239516  0.57609414  0.20828954    -0.20530
C3420       C  0.87997647  0.57977589  0.21625555    -0.07100
C3421       C  0.86712455  0.60903081  0.21667768     0.13770
C3422       C  0.88715791  0.63370964  0.21061458    -0.20590
C3423       C  0.92024288  0.63070396  0.20466383    -0.07100
C3424       C  0.93275393  0.60100396  0.20275144     0.13760
C3425       C  0.96742310  0.59495343  0.19578703    -0.23940
H3426       H  0.92214676  0.55362450  0.20757301     0.15050
H3427       H  0.87677824  0.65591963  0.21146199     0.15070
C3428       C  0.83209651  0.61455292  0.22317896    -0.23880
H3429       H  0.97259149  0.57048147  0.19460109     0.05290
H3430       H  0.98229812  0.60591715  0.21467071     0.08510
H3431       H  0.97413142  0.60328774  0.17273740     0.08510
H3432       H  0.82588897  0.61000621  0.24763974     0.08500
H3433       H  0.81741859  0.59984251  0.20683567     0.08500
H3434       H  0.82569461  0.63829297  0.22011942     0.05270
C3435       C  0.61245098  0.89838123  0.25438550    -0.20530
C3436       C  0.57880551  0.90058408  0.25600084    -0.07100
C3437       C  0.56555499  0.92878126  0.24948365     0.13770
C3438       C  0.58586479  0.95288898  0.24096643    -0.20590
C3439       C  0.61919928  0.94993333  0.23826875    -0.07100
C3440       C  0.63255321  0.92233857  0.24565656     0.13760
C3441       C  0.66821393  0.91806558  0.24447878    -0.23940
H3442       H  0.62326900  0.87730710  0.25940213     0.15050
H3443       H  0.57552061  0.97405507  0.23553219     0.15070
C3444       C  0.53012782  0.93375165  0.25035337    -0.23880
H3445       H  0.67489550  0.89560205  0.25189427     0.05290
H3446       H  0.68001374  0.93549517  0.26037384     0.08510
H3447       H  0.67741118  0.91993060  0.22025951     0.08510
H3448       H  0.52079244  0.93155855  0.27445390     0.08500
H3449       H  0.51814797  0.91729302  0.23354332     0.08500
H3450       H  0.52408678  0.95666537  0.24374003     0.05270
C3451       C  0.70479741  0.85820897  0.08671054    -0.20530
C3452       C  0.71267075  0.83034509  0.09797722    -0.07100
C3453       C  0.72694726  0.83056016  0.12793286     0.13770
C3454       C  0.73349356  0.85822440  0.14509422    -0.20590
C3455       C  0.72575306  0.88597837  0.13367121    -0.07100
C3456       C  0.71111316  0.88581513  0.10396916     0.13760
C3457       C  0.70325819  0.91469259  0.08950712    -0.23940
H3458       H  0.69431903  0.85859721  0.06379566     0.15050
H3459       H  0.74451853  0.85816629  0.16782901     0.15070
C3460       C  0.73481848  0.80175627  0.14247406    -0.23880
H3461       H  0.69393260  0.91045068  0.06543253     0.05290
H3462       H  0.72508646  0.92905344  0.08809370     0.08510
H3463       H  0.68459540  0.92695486  0.10369084     0.08510
H3464       H  0.75407676  0.78988098  0.12887975     0.08500
H3465       H  0.71320372  0.78704565  0.14317105     0.08500
H3466       H  0.74338379  0.80606213  0.16682209     0.05270
C3467       C  0.77291743  0.66759430  0.31137367    -0.20530
C3468       C  0.77568549  0.63845786  0.32145056    -0.07100
C3469       C  0.78718408  0.63522419  0.35209276     0.13770
C3470       C  0.79581223  0.66097465  0.37146130    -0.20590
C3471       C  0.79319777  0.69016621  0.36137817    -0.07100
C3472       C  0.78167027  0.69336453  0.33070174     0.13760
C3473       C  0.77924138  0.72386753  0.31770342    -0.23940
H3474       H  0.76432178  0.67019433  0.28798213     0.15050
H3475       H  0.80383878  0.65825241  0.39501253     0.15070
C3476       C  0.78918367  0.60474376  0.36521331    -0.23880
H3477       H  0.77225561  0.72199244  0.29271906     0.05290
H3478       H  0.80269580  0.73580237  0.31936704     0.08510
H3479       H  0.76084603  0.73749298  0.33073575     0.08510
H3480       H  0.80742046  0.59091322  0.35213060     0.08500
H3481       H  0.76555762  0.59309283  0.36362929     0.08500
H3482       H  0.79616847  0.60658603  0.39020002     0.05270
C3483       C  0.62772523  0.75184015  0.36375289    -0.20530
C3484       C  0.65302567  0.73153944  0.36351403    -0.07100
C3485       C  0.66075437  0.71408240  0.33569935     0.13770
C3486       C  0.64371990  0.71812731  0.30840184    -0.20590
C3487       C  0.61983433  0.73979304  0.30813091    -0.07100
C3488       C  0.61098343  0.75623647  0.33629354     0.13760
C3489       C  0.58379788  0.77813364  0.33756941    -0.23940
H3490       H  0.62212603  0.76537652  0.38505203     0.15050
H3491       H  0.64954136  0.70480717  0.28696760     0.15070
C3492       C  0.68709164  0.69127244  0.33479892    -0.23880
H3493       H  0.57944977  0.78817050  0.36171358     0.05290
H3494       H  0.56153339  0.76634884  0.32947641     0.08510
H3495       H  0.58934136  0.79680975  0.32243760     0.08510
H3496       H  0.68194612  0.67451427  0.35228994     0.08500
H3497       H  0.71030871  0.70259820  0.34021566     0.08500
H3498       H  0.68942656  0.67899680  0.31141000     0.05270
C3499       C  0.85448867  0.81217086  0.11969327    -0.20530
C3500       C  0.85431016  0.78588080  0.09972891    -0.07100
C3501       C  0.86893455  0.75970485  0.10931384     0.13770
C3502       C  0.88285277  0.76029672  0.13896178    -0.20590
C3503       C  0.88230874  0.78635861  0.15945459    -0.07100
C3504       C  0.86845593  0.81283694  0.14940682     0.13760
C3505       C  0.86695933  0.84145459  0.17037238    -0.23940
H3506       H  0.84237380  0.83187882  0.11254519     0.15050
H3507       H  0.89403151  0.74015782  0.14619384     0.15070
C3508       C  0.86913741  0.73087030  0.08858139    -0.23880
H3509       H  0.85379101  0.85934559  0.15934738     0.05290
H3510       H  0.89140726  0.85026386  0.17532891     0.08510
H3511       H  0.85454161  0.83700814  0.19268691     0.08510
H3512       H  0.88106016  0.73499989  0.06598006     0.08500
H3513       H  0.84435828  0.72264691  0.08414743     0.08500
H3514       H  0.88217981  0.71275029  0.09935765     0.05270
C3515       C  0.92171986  0.64577392  0.52207844    -0.20530
C3516       C  0.91489293  0.61736956  0.03302006    -0.07100
C3517       C  0.88286124  0.61018780  0.54052563     0.13770
C3518       C  0.85823031  0.63009819  0.53381227    -0.20590
C3519       C  0.86485288  0.65694525  0.51914276    -0.07100
C3520       C  0.89742610  0.66543805  0.51468639     0.13760
C3521       C  0.90735915  0.69461793  0.50116424    -0.23940
H3522       H  0.94632406  0.65110956  0.01603041     0.15050
H3523       H  0.83360681  0.62369623  0.53825920     0.15070
C3524       C  0.87468711  0.58051865  0.05368572    -0.23880
H3525       H  0.93367853  0.69808445  0.50139566     0.05290
H3526       H  0.89662623  0.71394661  0.51509945     0.08510
H3527       H  0.89989245  0.69448219  0.47640836     0.08510
H3528       H  0.88798140  0.57843774  0.07564753     0.08500
H3529       H  0.88100481  0.56165619  0.53645667     0.08500
H3530       H  0.84888978  0.57882511  0.55918625     0.05270
C3531       C  0.64492884  0.88195027  0.42652629    -0.20530
C3532       C  0.64002968  0.85361480  0.43820414    -0.07100
C3533       C  0.60874206  0.84075226  0.43703919     0.13770
C3534       C  0.58317252  0.85765293  0.42679479    -0.20590
C3535       C  0.58754014  0.88742533  0.41854738    -0.07100
C3536       C  0.61907580  0.89913031  0.41757217     0.13760
C3537       C  0.62520515  0.93072164  0.40956232    -0.23940
H3538       H  0.66882319  0.89167846  0.42665221     0.15050
H3539       H  0.55903779  0.84864449  0.42825542     0.15070
C3540       C  0.60164532  0.80958171  0.44722010    -0.23880
H3541       H  0.65112327  0.93637792  0.40875327     0.05290
H3542       H  0.61354225  0.94643801  0.42730167     0.08510
H3543       H  0.61498460  0.93337815  0.38628756     0.08510
H3544       H  0.60503160  0.80906019  0.97276461     0.08500
H3545       H  0.61760166  0.79307483  0.43452294     0.08500
H3546       H  0.57659669  0.80241183  0.44227574     0.05270
C3547       C  0.63159588  0.49376743  0.38884672    -0.20530
C3548       C  0.64171285  0.50788008  0.41754097    -0.07100
C3549       C  0.67405483  0.51688044  0.42050268     0.13770
C3550       C  0.69484909  0.51315066  0.39410207    -0.20590
C3551       C  0.68371338  0.00040774  0.36511531    -0.07100
C3552       C  0.65222773  0.48875806  0.36330164     0.13760
C3553       C  0.63906116  0.47213996  0.33407097    -0.23940
H3554       H  0.60684897  0.48666399  0.38605266     0.15050
H3555       H  0.71895166  0.02236583  0.39537989     0.15070
C3556       C  0.68588125  0.53219644  0.45061773    -0.23880
H3557       H  0.62859089  0.45014845  0.33969519     0.05290
H3558       H  0.65754258  0.96700520  0.31585257     0.08510
H3559       H  0.62009722  0.48566527  0.32414252     0.08510
H3560       H  0.68247239  0.51691267  0.46983298     0.08500
H3561       H  0.67233692  0.55317660  0.45636806     0.08500
H3562       H  0.71165689  0.53820903  0.44899614     0.05270
C3563       C  0.81919079  0.97435429  0.07238626    -0.20530
C3564       C  0.80622830  0.50320837  0.07647800    -0.07100
C3565       C  0.80848216  0.02233754  0.05155481     0.13770
C3566       C  0.82873324  0.01428190  0.02562094    -0.20590
C3567       C  0.84551945  0.98696214  0.02388893    -0.07100
C3568       C  0.83838895  0.96581825  0.04629584     0.13760
C3569       C  0.85216159  0.93455271  0.04356430    -0.23940
H3570       H  0.81593706  0.95895303  0.09074055     0.15050
H3571       H  0.83334483  0.03032027  0.00815024     0.15070
C3572       C  0.79047363  0.55134773  0.05300126    -0.23880
H3573       H  0.84264212  0.92056611  0.06216646     0.05290
H3574       H  0.87850423  0.93538500  0.04571658     0.08510
H3575       H  0.84571978  0.92314242  0.02062109     0.08510
H3576       H  0.79714005  0.56572885  0.07419113     0.08500
H3577       H  0.76447313  0.04649808  0.05422620     0.08500
H3578       H  0.79540712  0.06423096  0.03210129     0.05270
C3579       C  0.52439927  0.86466008  0.10825127    -0.20530
C3580       C  0.49625570  0.85218616  0.12015259    -0.07100
C3581       C  0.96698839  0.85657769  0.10502779     0.13770
C3582       C  0.96620666  0.87606022  0.08072033    -0.20590
C3583       C  0.49411165  0.88979096  0.06988862    -0.07100
C3584       C  0.52386510  0.88332127  0.08326188     0.13760
C3585       C  0.55505901  0.89706087  0.07279941    -0.23940
H3586       H  0.54686916  0.86088731  0.11951707     0.15050
H3587       H  0.94359296  0.88028283  0.06991497     0.15070
C3588       C  0.93641754  0.84036103  0.11294817    -0.23880
H3589       H  0.57546222  0.89023398  0.08687715     0.05290
H3590       H  0.55384585  0.92202312  0.07545063     0.08510
H3591       H  0.56028033  0.88945350  0.04804742     0.08510
H3592       H  0.91864001  0.85692040  0.12253252     0.08500
H3593       H  0.93971721  0.82297578  0.12982331     0.08500
H3594       H  0.92666609  0.82850380  0.09139056     0.05270
C3595       C  0.99309646  0.64154249  0.39121650    -0.20530
C3596       C  0.00005853  0.61208008  0.37924093    -0.07100
C3597       C  0.00309388  0.60605886  0.34644236     0.13770
C3598       C  0.00138797  0.62989368  0.32682336    -0.20590
C3599       C  0.99587850  0.65951087  0.33883620    -0.07100
C3600       C  0.99098534  0.66537926  0.37133911     0.13760
C3601       C  0.98457291  0.69682058  0.38506629    -0.23940
H3602       H  0.98978695  0.64598171  0.41624990     0.15050
H3603       H  0.50435983  0.62533360  0.30172136     0.15070
C3604       C  0.50687822  0.57447430  0.33152314    -0.23880
H3605       H  0.98186220  0.69760065  0.41094076     0.05290
H3606       H  0.96218519  0.70514109  0.37534785     0.08510
H3607       H  0.00470522  0.71206079  0.37925021     0.08510
H3608       H  0.98735378  0.55968780  0.34008550     0.08500
H3609       H  0.53047402  0.56551053  0.33712320     0.08500
H3610       H  0.50548389  0.57387359  0.30560972     0.05270
C3611       C  0.63961579  0.63891513  0.14179638    -0.20530
C3612       C  0.65367470  0.64289902  0.11215851    -0.07100
C3613       C  0.68726541  0.64923856  0.11181850     0.13770
C3614       C  0.70561565  0.63873938  0.13584871    -0.20590
C3615       C  0.69085934  0.62657153  0.16172959    -0.07100
C3616       C  0.65782997  0.63063664  0.16674031     0.13760
C3617       C  0.64092646  0.62240547  0.19633900    -0.23940
H3618       H  0.61401073  0.63862968  0.14454561     0.15050
H3619       H  0.73142770  0.63842653  0.13349599     0.15070
C3620       C  0.70484494  0.66723750  0.08823678    -0.23880
H3621       H  0.61520161  0.62813751  0.19629594     0.05290
H3622       H  0.65189867  0.63502401  0.21684126     0.08510
H3623       H  0.64242001  0.59781064  0.19882054     0.08510
H3624       H  0.68912418  0.67721856  0.07143459     0.08500
H3625       H  0.72287003  0.65299155  0.07527260     0.08500
H3626       H  0.71760884  0.68640964  0.10079608     0.05270
C3627       C  0.61772217  0.69341906  0.09116463    -0.20530
C3628       C  0.60609233  0.66339236  0.09007739    -0.07100
C3629       C  0.57273696  0.65902421  0.09756646     0.13770
C3630       C  0.55287903  0.68381706  0.09873813    -0.20590
C3631       C  0.56589965  0.71194545  0.10765626    -0.07100
C3632       C  0.59841741  0.71770293  0.10101745     0.13760
C3633       C  0.61351579  0.74860308  0.10560433    -0.23940
H3634       H  0.64261425  0.69776408  0.08612386     0.15050
H3635       H  0.52750491  0.68019174  0.10304568     0.15070
C3636       C  0.55704015  0.63195124  0.11156196    -0.23880
H3637       H  0.63824211  0.74904494  0.09586770     0.05290
H3638       H  0.61513349  0.75560583  0.13088179     0.08510
H3639       H  0.59940247  0.76500611  0.09336202     0.08510
H3640       H  0.57345045  0.61519280  0.11956297     0.08500
H3641       H  0.53938520  0.62121920  0.09507337     0.08500
H3642       H  0.54375586  0.63949146  0.13331408     0.05270
C3643       C  0.64821329  0.64191931  0.99425383    -0.20530
C3644       C  0.68087167  0.63645699  0.49393108    -0.07100
C3645       C  0.69155047  0.61866419  0.51708714     0.13770
C3646       C  0.67441574  0.61954487  0.04535257    -0.20590
C3647       C  0.64820017  0.63936972  0.05093835    -0.07100
C3648       C  0.63448774  0.65092151  0.02340318     0.13760
C3649       C  0.60818322  0.67401577  0.02261784    -0.23940
H3650       H  0.63788556  0.64944774  0.97314886     0.15050
H3651       H  0.68295943  0.60636748  0.06352912     0.15070
C3652       C  0.72205569  0.60139342  0.51274286    -0.23880
H3653       H  0.60122252  0.67780299  0.99829756     0.05290
H3654       H  0.61710211  0.69618342  0.03242581     0.08510
H3655       H  0.58578295  0.66763131  0.03444931     0.08510
H3656       H  0.74243613  0.61686969  0.50853120     0.08500
H3657       H  0.71984295  0.58475034  0.49232392     0.08500
H3658       H  0.72737321  0.58905935  0.53367640     0.05270
C3659       C  0.59149879  0.60339969  0.05708979    -0.20530
C3660       C  0.61534796  0.60677696  0.08002251    -0.07100
C3661       C  0.62153827  0.58105527  0.09728251     0.13770
C3662       C  0.59874404  0.55781239  0.09702227    -0.20590
C3663       C  0.57276172  0.55760641  0.07717667    -0.07100
C3664       C  0.57017937  0.57962403  0.05537249     0.13760
C3665       C  0.54501886  0.57891035  0.03019309    -0.23940
H3666       H  0.58733906  0.62080912  0.04179459     0.15050
H3667       H  0.60251167  0.53851743  0.11064427     0.15070
C3668       C  0.65214417  0.57425255  0.11310547    -0.23880
H3669       H  0.54758621  0.59814784  0.01511608     0.05290
H3670       H  0.02087687  0.58044097  0.04115395     0.08510
H3671       H  0.54708388  0.55813941  0.01448205     0.08510
H3672       H  0.64774337  0.57316491  0.13860236     0.08500
H3673       H  0.67178725  0.58994079  0.10884704     0.08500
H3674       H  0.66085327  0.55189223  0.10372515     0.05270
C3675       C  0.90562627  0.90119729  0.34457172    -0.20530
C3676       C  0.87412790  0.90895420  0.35437906    -0.07100
C3677       C  0.86581388  0.93997664  0.35334444     0.13770
C3678       C  0.89007711  0.96134407  0.34990470    -0.20590
C3679       C  0.92200437  0.95296112  0.34981943    -0.07100
C3680       C  0.92970455  0.92276398  0.34224846     0.13760
C3681       C  0.96325084  0.91241546  0.33479762    -0.23940
H3682       H  0.91296602  0.87830176  0.34076051     0.15050
H3683       H  0.88448051  0.98512591  0.35263978     0.15070
C3684       C  0.83242097  0.95191416  0.35761805    -0.23880
H3685       H  0.96342127  0.88902551  0.32386638     0.05290
H3686       H  0.97731628  0.91239447  0.35652477     0.08510
H3687       H  0.97475608  0.92709528  0.31785905     0.08510
H3688       H  0.82125388  0.94591456  0.37989369     0.08500
H3689       H  0.83184830  0.97688131  0.35791866     0.08500
H3690       H  0.81812565  0.94363433  0.33746182     0.05270
C3691       C  0.80466587  0.88985039  0.40740233    -0.20530
C3692       C  0.83668621  0.89542002  0.39852869    -0.07100
C3693       C  0.85709027  0.90408383  0.42480888     0.13770
C3694       C  0.84834792  0.89333301  0.45423672    -0.20590
C3695       C  0.81628576  0.88539281  0.45943192    -0.07100
C3696       C  0.79503120  0.89646349  0.43820384     0.13760
C3697       C  0.76030487  0.90153216  0.44611778    -0.23940
H3698       H  0.78858030  0.87549440  0.39354608     0.15050
H3699       H  0.86574100  0.89159917  0.47245715     0.15070
C3700       C  0.88473328  0.92631730  0.42386326    -0.23880
H3701       H  0.75387654  0.92453087  0.44015833     0.05290
H3702       H  0.75553960  0.89966039  0.47148685     0.08510
H3703       H  0.74495937  0.88505613  0.43247378     0.08510
H3704       H  0.87559554  0.94831661  0.41754163     0.08500
H3705       H  0.90406364  0.91941749  0.40728917     0.08500
H3706       H  0.89577640  0.93017012  0.44725970     0.05270
C3707       C  0.79414828  0.89142251  0.33900515    -0.20530
C3708       C  0.82640182  0.88174329  0.33623864    -0.07100
C3709       C  0.83739232  0.87446293  0.30427158     0.13770
C3710       C  0.81940570  0.88353641  0.27924446    -0.20590
C3711       C  0.79002283  0.89702834  0.28460392    -0.07100
C3712       C  0.77486779  0.89407228  0.31329424     0.13760
C3713       C  0.73949409  0.89950857  0.31761150    -0.23940
H3714       H  0.78450141  0.90350714  0.35923861     0.15050
H3715       H  0.83017840  0.88353628  0.25604207     0.15070
C3716       C  0.86875623  0.86061750  0.29378519    -0.23880
H3717       H  0.73173494  0.89723857  0.34225946     0.05290
H3718       H  0.72610941  0.88244519  0.30262298     0.08510
H3719       H  0.73275955  0.92217812  0.31106434     0.08510
H3720       H  0.88248625  0.85149635  0.31207030     0.08500
H3721       H  0.88388790  0.87749974  0.28234307     0.08500
H3722       H  0.86414592  0.84131849  0.27647289     0.05270
C3723       C  0.89476017  0.85385329  0.38830709    -0.20530
C3724       C  0.86619867  0.85394586  0.37077306    -0.07100
C3725       C  0.85710100  0.82555899  0.35603199     0.13770
C3726       C  0.88146941  0.80529749  0.34686581    -0.20590
C3727       C  0.91331840  0.81230247  0.35494380    -0.07100
C3728       C  0.91930128  0.83423896  0.37908957     0.13760
C3729       C  0.95195213  0.83950000  0.39296568    -0.23940
H3730       H  0.90132061  0.87178857  0.40467126     0.15050
H3731       H  0.87599820  0.78603722  0.33084505     0.15070
C3732       C  0.82316617  0.81647162  0.34865554    -0.23880
H3733       H  0.96104510  0.86220802  0.38776201     0.05290
H3734       H  0.96941024  0.82248323  0.38368405     0.08510
H3735       H  0.95032040  0.83822489  0.41873002     0.08510
H3736       H  0.81979679  0.81424562  0.32293092     0.08500
H3737       H  0.80587055  0.83263944  0.35970723     0.08500
H3738       H  0.81777333  0.79436332  0.35821526     0.05270
C3739       C  0.85003420  0.88465057  0.86500275    -0.02720
C3740       C  0.63132074  0.63849531  0.58344170    -0.02720
C3741       C  0.55980583  0.90775692  0.92420490     0.42230
N3742       N  0.53814168  0.95207068  0.92824711     0.01120
C3743       C  0.51967335  0.53115691  0.57094255    -0.06760
H3744       H  0.94794196  0.94111775  0.56346456     0.06610
C3745       C  0.88627834  0.99794446  0.97665460    -0.07110
Co3746     Co  0.54081839  0.97306685  0.99460895     0.74180
N3747       N  0.98157063  0.95783950  0.52999282    -0.26290
Co3748     Co  0.96944253  0.00267537  0.52529670     0.74070
C3749       C  0.87592225  0.98403002  0.00557258     0.42330
N3750       N  0.95388676  0.99524641  0.91406533     0.00740
N3751       N  0.92699997  0.98995578  0.50471946     0.00480
N3752       N  0.56480733  0.51116999  0.54962996    -0.47130
H3753       H  0.56035317  0.90559727  0.97701004     0.06600
N3754       N  0.50841132  0.94691295  0.51774822     0.01130
N3755       N  0.95687375  0.54836441  0.51944103     0.00870
C3756       C  0.93829224  0.59359907  0.52409128     0.42470
N3757       N  0.98141580  0.98493309  0.90270964    -0.25740
C3758       C  0.60657764  0.50053112  0.96878573    -0.06660
N3759       N  0.55132111  0.93169155  0.90773048    -0.46850
N3760       N  0.94712548  0.56992435  0.54053579    -0.47070
C3761       C  0.61582340  0.51649028  0.94059093     0.42240
N3762       N  0.53962623  0.50241381  0.53339430     0.01110
N3763       N  0.01078389  0.54230051  0.91777366    -0.25760
N3764       N  0.54044151  0.94345625  0.95681974    -0.26260
N3765       N  0.98335049  0.55285034  0.92886075     0.00750
H3766       H  0.04657667  0.56006573  0.88723283     0.06640
H3767       H  0.93324441  0.59484311  0.97124596     0.06680
N3768       N  0.51285656  0.51397802  0.54512066    -0.26310
N3769       N  0.91852396  0.00031137  0.97803932    -0.25920
N3770       N  0.56456250  0.51215022  0.94462630     0.01120
C3771       C  0.49105559  0.91253348  0.54650266     0.42520
C3772       C  0.97673684  0.97034873  0.87487218    -0.07170
N3773       N  0.95230632  0.55604665  0.99070738    -0.25920
H3774       H  0.87167570  0.00789298  0.95961139     0.06660
N3775       N  0.51495756  0.92010988  0.52716645    -0.47140
H3776       H  0.99551230  0.96189821  0.85923905     0.06650
C3777       C  0.00185016  0.58781281  0.90121233     0.42350
C3778       C  0.55204254  0.91589340  0.95652250    -0.06670
Co3779     Co  0.52359218  0.49747104  0.92288683     0.73820
N3780       N  0.93009206  0.98826870  0.89513587    -0.46860
C3781       C  0.55440354  0.53038441  0.57296307     0.42620
N3782       N  0.58792599  0.52349229  0.92816468    -0.46850
Co3783     Co  0.95175258  0.52588226  0.95261748     0.73890
C3784       C  0.94190337  0.58407845  0.99129804    -0.07170
C3785       C  0.96855958  0.93747091  0.54825559    -0.06740
N3786       N  0.57420633  0.49918834  0.96944455    -0.26260
N3787       N  0.90275454  0.98031257  0.52133920    -0.47030
H3788       H  0.00274819  0.54405599  0.58545209     0.06620
C3789       C  0.02449867  0.56297873  0.90038346    -0.07150
Cl3790     Cl  0.99649459  0.49987805  0.97394507    -0.50150
C3791       C  0.94255424  0.97249475  0.86989317     0.42380
H3792       H  0.62184038  0.48834216  0.98348998     0.06590
N3793       N  0.97692355  0.57975352  0.91924635    -0.46860
C3794       C  0.69978324  0.66400374  0.98918449     0.42230
N3795       N  0.72290420  0.70379712  0.01047470     0.01120
C3796       C  0.69989755  0.83529205  0.93782994    -0.06760
H3797       H  0.71827068  0.75612113  0.86738177     0.06610
C3798       C  0.81754587  0.71891173  0.91344867    -0.07110
Co3799     Co  0.69560755  0.75884535  0.98441066     0.74180
N3800       N  0.71419439  0.75542567  0.91734001    -0.26290
Co3801     Co  0.74969170  0.78408020  0.93398798     0.74070
C3802       C  0.79929388  0.71682078  0.88400418     0.42330
N3803       N  0.81499344  0.71388653  0.99089037     0.00740
N3804       N  0.78367863  0.75490559  0.91426871     0.00840
N3805       N  0.66512862  0.81750985  0.97282257    -0.47130
H3806       H  0.66654192  0.69273720  0.96161951     0.06600
N3807       N  0.69172932  0.74613421  0.93628976     0.01130
N3808       N  0.78413445  0.81210463  0.95314077     0.00870
C3809       C  0.80742352  0.85424602  0.96715244     0.42470
N3810       N  0.79413718  0.70401767  0.01130380    -0.25740
C3811       C  0.68945948  0.79804416  0.54802721    -0.06660
N3812       N  0.72306515  0.67399716  0.00911796    -0.46850
N3813       N  0.78195169  0.84125571  0.95278296    -0.47070
C3814       C  0.70759050  0.80191069  0.57731302     0.42240
N3815       N  0.69242365  0.80286065  0.97253389     0.01110
N3816       N  0.79367312  0.76139901  0.54566723    -0.25760
N3817       N  0.70045972  0.71421281  0.99312509    -0.26260
N3818       N  0.81598149  0.77135305  0.52674520     0.00750
H3819       H  0.78944557  0.76056836  0.59556446     0.06640
H3820       H  0.84795431  0.82971326  0.99079056     0.06680
N3821       N  0.71311116  0.81243165  0.95185952    -0.26310
N3822       N  0.80631098  0.74330335  0.93065322    -0.25920
N3823       N  0.72389809  0.76253202  0.54904422     0.01120
C3824       C  0.67516503  0.73353091  0.88990347     0.42520
C3825       C  0.80609980  0.67937398  0.02327859    -0.07170
N3826       N  0.80938995  0.80371564  0.96807544    -0.25920
H3827       H  0.83421519  0.70297064  0.92160372     0.06660
N3828       N  0.66697608  0.73395563  0.92069308    -0.47140
H3829       H  0.79628135  0.66881216  0.04334911     0.06650
C3830       C  0.83210682  0.78401208  0.57333448     0.42350
C3831       C  0.68543154  0.69101774  0.97827166    -0.06670
Co3832     Co  0.75784322  0.73237982  0.52973316     0.73820
N3833       N  0.84118375  0.69755510  0.98880737    -0.46860
C3834       C  0.66778942  0.83846309  0.95165206     0.42620
N3835       N  0.72835798  0.77894472  0.57572880    -0.46850
Co3836     Co  0.81293175  0.75832610  0.97836260     0.73890
C3837       C  0.82640272  0.82895727  0.97714231    -0.07170
C3838       C  0.70604034  0.74837909  0.88777461    -0.06740
N3839       N  0.70138033  0.77342590  0.53198438    -0.26260
N3840       N  0.77896101  0.73990849  0.88694190    -0.47030
H3841       H  0.70887716  0.84420489  0.91651582     0.06620
C3842       C  0.80159107  0.76856979  0.57525501    -0.07150
Cl3843     Cl  0.75415195  0.75843423  0.98173050    -0.50150
C3844       C  0.83776686  0.67527753  0.00850562     0.42380
H3845       H  0.67273628  0.81332197  0.53880585     0.06590
N3846       N  0.84031109  0.78417212  0.54254375    -0.46860
C3847       C  0.60261263  0.74251296  0.77875319     0.42230
N3848       N  0.56453190  0.73386200  0.74638598     0.01120
C3849       C  0.97670815  0.83978357  0.67653569    -0.06760
H3850       H  0.50638914  0.88187625  0.77254094     0.06610
C3851       C  0.93932849  0.77159293  0.81934529    -0.07110
Co3852     Co  0.54682086  0.78879231  0.71431978     0.74180
N3853       N  0.51942929  0.83642002  0.75824990    -0.26290
Co3854     Co  0.97577921  0.81525622  0.74314410     0.74070
C3855       C  0.93907620  0.80183295  0.83364577     0.42330
N3856       N  0.98054657  0.71374421  0.78369271     0.00740
N3857       N  0.96075965  0.80245230  0.78769481     0.00840
N3858       N  0.52386296  0.82143515  0.65801321    -0.47130
H3859       H  0.60793395  0.79181291  0.76599576     0.06600
N3860       N  0.54679037  0.82484389  0.74796643     0.01130
N3861       N  0.93413574  0.79530285  0.72448686     0.00870
C3862       C  0.89717686  0.78548141  0.69066816     0.42470
N3863       N  0.00798023  0.70386543  0.77191991    -0.25740
C3864       C  0.55498899  0.75648547  0.64957735    -0.06660
N3865       N  0.58145753  0.72152610  0.76780833    -0.46850
N3866       N  0.91766229  0.80690799  0.70221623    -0.47070
C3867       C  0.55001260  0.72631093  0.63533332     0.42240
N3868       N  0.51810019  0.81409359  0.68700043     0.01110
N3869       N  0.97996607  0.69386297  0.71143362    -0.25760
N3870       N  0.57302883  0.76215563  0.74274014    -0.26260
N3871       N  0.95264171  0.70495588  0.72201208     0.00750
H3872       H  0.99309630  0.65005110  0.69192047     0.06640
H3873       H  0.89278387  0.73633786  0.70399361     0.06680
N3874       N  0.99071938  0.82444434  0.69827680    -0.26310
N3875       N  0.95223545  0.77414169  0.79112308    -0.25920
N3876       N  0.53669351  0.72699678  0.68394548     0.01120
C3877       C  0.55964525  0.87173577  0.76088076     0.42520
C3878       C  0.52030819  0.68477425  0.79104503    -0.07170
N3879       N  0.92611737  0.76691790  0.72811974    -0.25920
H3880       H  0.92802673  0.75144994  0.82732974     0.06660
N3881       N  0.57064618  0.84480248  0.74925637    -0.47140
H3882       H  0.54168031  0.67176276  0.78642607     0.06650
C3883       C  0.93966155  0.65963678  0.70374159     0.42350
C3884       C  0.59709551  0.76966223  0.76231968    -0.06670
Co3885     Co  0.52288757  0.71436713  0.72777036     0.73820
N3886       N  0.97285800  0.70166560  0.81034979    -0.46860
C3887       C  0.49830642  0.83697704  0.64956267     0.42620
N3888       N  0.53871592  0.70925239  0.65813469    -0.46850
Co3889     Co  0.95234292  0.74018078  0.75639989     0.73890
C3890       C  0.90276634  0.75880957  0.70792390    -0.07170
C3891       C  0.52509898  0.86585937  0.76718512    -0.06740
N3892       N  0.54641427  0.75466550  0.67955137    -0.26260
N3893       N  0.95239766  0.82004215  0.81262843    -0.47030
H3894       H  0.95425160  0.85139865  0.67931831     0.06620
C3895       C  0.97436267  0.66550698  0.69907233    -0.07150
Cl3896     Cl  0.99956628  0.76480462  0.73574180    -0.50150
C3897       C  0.99736810  0.68359611  0.81673092     0.42380
H3898       H  0.56380894  0.77654852  0.63932563     0.06590
N3899       N  0.92858483  0.68552585  0.71804128    -0.46860
C3900       C  0.70080783  0.00609268  0.83561876     0.42230
N3901       N  0.73604006  0.01267414  0.79976965     0.01120
C3902       C  0.71384800  0.57359232  0.65923071    -0.06760
H3903       H  0.65922650  0.95758190  0.67892901     0.06610
C3904       C  0.76290307  0.92277994  0.67003254    -0.07110
Co3905     Co  0.70704776  0.54494209  0.74883035     0.74180
N3906       N  0.68024151  0.99768991  0.70214092    -0.26290
Co3907     Co  0.72112759  0.00705561  0.67484358     0.74070
C3908       C  0.73343177  0.91461309  0.65295056     0.42330
N3909       N  0.79329243  0.96098759  0.73994230     0.00740
N3910       N  0.73207803  0.96132772  0.67017578     0.00840
N3911       N  0.70306536  0.59656751  0.70668361    -0.47130
H3912       H  0.66171936  0.02759020  0.80792478     0.06600
N3913       N  0.67460049  0.01195540  0.72972825     0.01130
N3914       N  0.76268825  0.51430068  0.64821224     0.00870
C3915       C  0.79527611  0.51394509  0.60856645     0.42470
N3916       N  0.78638723  0.97478083  0.76741139    -0.25740
C3917       C  0.73835272  0.60529012  0.78097120    -0.06660
N3918       N  0.73231790  0.00307367  0.82841518    -0.46850
N3919       N  0.76438372  0.51810462  0.61767002    -0.47070
C3920       C  0.76752044  0.61181213  0.79936126     0.42240
N3921       N  0.70702708  0.56727571  0.70820989     0.01110
N3922       N  0.81941484  0.52978878  0.74793616    -0.25760
N3923       N  0.70914769  0.02257525  0.78892951    -0.26260
N3924       N  0.82500590  0.51711712  0.71960461     0.00750
H3925       H  0.84097095  0.56764771  0.77432751     0.06640
H3926       H  0.83589328  0.49678983  0.63751711     0.06680
N3927       N  0.71270293  0.55313830  0.68062507    -0.26310
N3928       N  0.76003098  0.95221984  0.67946062    -0.25920
N3929       N  0.76813831  0.56600109  0.77945148     0.01120
C3930       C  0.63949191  0.97532804  0.72689449     0.42520
C3931       C  0.78126567  0.95417574  0.78792807    -0.07170
N3932       N  0.79035948  0.50629348  0.65913973    -0.25920
H3933       H  0.78396674  0.90943356  0.67255643     0.06660
N3934       N  0.65099394  0.99893167  0.74536930    -0.47140
H3935       H  0.77399080  0.95886730  0.81204045     0.06650
C3936       C  0.86014324  0.55328914  0.72522218     0.42350
C3937       C  0.68580988  0.01952650  0.80980627    -0.06670
Co3938     Co  0.77834006  0.52038484  0.77413813     0.73820
N3939       N  0.79366689  0.93126088  0.74066344    -0.46860
C3940       C  0.70718321  0.60238962  0.67643319     0.42620
N3941       N  0.78437427  0.58621309  0.79721785    -0.46850
Co3942     Co  0.79324854  0.98402198  0.69977857     0.73890
C3943       C  0.81235011  0.50629409  0.63629696    -0.07170
C3944       C  0.65916989  0.97454128  0.69826302    -0.06740
N3945       N  0.74077084  0.57617788  0.76981309    -0.26260
N3946       N  0.71581625  0.93985534  0.65399563    -0.47030
H3947       H  0.71827703  0.56882941  0.63446116     0.06620
C3948       C  0.84078006  0.55218824  0.75371942    -0.07150
Cl3949     Cl  0.75004760  0.01419787  0.72435706    -0.50150
C3950       C  0.78532252  0.92539067  0.77011584     0.42380
H3951       H  0.71748930  0.61909420  0.77929104     0.06590
N3952       N  0.84876974  0.53093015  0.70500621    -0.46860
C3953       C  0.91225426  0.57606454  0.70818732    -0.20530
C3954       C  0.87983328  0.57976260  0.71613837    -0.07100
C3955       C  0.86701036  0.60903115  0.71658457     0.13770
C3956       C  0.88707054  0.63370343  0.71055817    -0.20590
C3957       C  0.92015598  0.63067844  0.70462023    -0.07100
C3958       C  0.93263921  0.60096712  0.70268445     0.13760
C3959       C  0.96730699  0.59489754  0.69573378    -0.23940
H3960       H  0.92198744  0.55358714  0.70745822     0.15050
H3961       H  0.87671131  0.65592280  0.71142437     0.15070
C3962       C  0.83198453  0.61457487  0.72307564    -0.23880
H3963       H  0.97245669  0.57042151  0.69453421     0.05290
H3964       H  0.98217955  0.60584136  0.71463064     0.08510
H3965       H  0.97403486  0.60324280  0.67269409     0.08510
H3966       H  0.82575772  0.61000501  0.74752601     0.08500
H3967       H  0.81730309  0.59989281  0.70670914     0.08500
H3968       H  0.82560681  0.63832566  0.72004098     0.05270
C3969       C  0.61242071  0.89835147  0.75438329    -0.20530
C3970       C  0.57877368  0.90054920  0.75598664    -0.07100
C3971       C  0.56552575  0.92874783  0.74946923     0.13770
C3972       C  0.58583823  0.95286209  0.74096848    -0.20590
C3973       C  0.61917573  0.94991429  0.73828900    -0.07100
C3974       C  0.63252605  0.92231609  0.74567252     0.13760
C3975       C  0.66818725  0.91804711  0.74450720    -0.23940
H3976       H  0.62323815  0.87727642  0.75939735     0.15050
H3977       H  0.57549388  0.97402814  0.73553448     0.15070
C3978       C  0.53009763  0.93371211  0.75032146    -0.23880
H3979       H  0.67486746  0.89557937  0.75191215     0.05290
H3980       H  0.67997851  0.93547015  0.76041650     0.08510
H3981       H  0.67739442  0.91992725  0.72029349     0.08510
H3982       H  0.52075067  0.93151676  0.77441741     0.08500
H3983       H  0.51812871  0.91725082  0.73350612     0.08500
H3984       H  0.52405653  0.95662483  0.74370518     0.05270
C3985       C  0.70475491  0.85824322  0.58671399    -0.20530
C3986       C  0.71262041  0.83038057  0.59798837    -0.07100
C3987       C  0.72688875  0.83059747  0.62794760     0.13770
C3988       C  0.73343881  0.85826267  0.64510399    -0.20590
C3989       C  0.72570893  0.88601515  0.63367232    -0.07100
C3990       C  0.71107377  0.88585059  0.60396840     0.13760
C3991       C  0.70322884  0.91472755  0.58950051    -0.23940
H3992       H  0.69428215  0.85862940  0.56379636     0.15050
H3993       H  0.74445914  0.85820678  0.66784119     0.15070
C3994       C  0.73474757  0.80179479  0.64249745    -0.23880
H3995       H  0.69390453  0.91048414  0.56542559     0.05290
H3996       H  0.72506132  0.92908266  0.58808670     0.08510
H3997       H  0.68456859  0.92699678  0.60368106     0.08510
H3998       H  0.75400731  0.78991274  0.62891180     0.08500
H3999       H  0.71312884  0.78708901  0.64319081     0.08500
H4000       H  0.74330552  0.80610338  0.66684774     0.05270
C4001       C  0.77281592  0.66756650  0.81133816    -0.20530
C4002       C  0.77556054  0.63842753  0.82141286    -0.07100
C4003       C  0.78705546  0.63518157  0.85205363     0.13770
C4004       C  0.79570878  0.66092350  0.87142266    -0.20590
C4005       C  0.79312132  0.69011792  0.86134074    -0.07100
C4006       C  0.78159154  0.69332834  0.83066723     0.13760
C4007       C  0.77918312  0.72383510  0.81767332    -0.23940
H4008       H  0.76422206  0.67017450  0.78794748     0.15050
H4009       H  0.80373376  0.65819326  0.89497285     0.15070
C4010       C  0.78902495  0.60469732  0.86517088    -0.23880
H4011       H  0.77219325  0.72196769  0.79269007     0.05290
H4012       H  0.80264599  0.73575489  0.81933480     0.08510
H4013       H  0.76079874  0.73747069  0.83071005     0.08510
H4014       H  0.80724858  0.59085186  0.85208691     0.08500
H4015       H  0.76538810  0.59306649  0.86358538     0.08500
H4016       H  0.79600973  0.60653125  0.89015759     0.05270
C4017       C  0.62769284  0.75182815  0.86373485    -0.20530
C4018       C  0.65297756  0.73151091  0.86350690    -0.07100
C4019       C  0.66069077  0.71403502  0.83569979     0.13770
C4020       C  0.64365461  0.71807371  0.80840064    -0.20590
C4021       C  0.61978432  0.73975408  0.80811774    -0.07100
C4022       C  0.61095148  0.75622045  0.83627326     0.13760
C4023       C  0.58378495  0.77813818  0.83754086    -0.23940
H4024       H  0.62210674  0.76538061  0.88502651     0.15050
H4025       H  0.64946533  0.70473848  0.78697313     0.15070
C4026       C  0.68701576  0.69121302  0.83480855    -0.23880
H4027       H  0.57944559  0.78818790  0.86168153     0.05290
H4028       H  0.56151054  0.76636728  0.82945426     0.08510
H4029       H  0.58934423  0.79680428  0.82240102     0.08510
H4030       H  0.68186395  0.67446708  0.85231075     0.08500
H4031       H  0.71023915  0.70253124  0.84021567     0.08500
H4032       H  0.68934132  0.67892434  0.81142549     0.05270
C4033       C  0.85446586  0.81219429  0.61975409    -0.20530
C4034       C  0.85426923  0.78590803  0.59978460    -0.07100
C4035       C  0.86886905  0.75971813  0.60936594     0.13770
C4036       C  0.88278912  0.76029545  0.63901146    -0.20590
C4037       C  0.88226857  0.78635546  0.65950680    -0.07100
C4038       C  0.86843308  0.81284510  0.64946656     0.13760
C4039       C  0.86695739  0.84146045  0.67043764    -0.23940
H4040       H  0.84236744  0.83191268  0.61260973     0.15050
H4041       H  0.89395305  0.74014726  0.64623850     0.15070
C4042       C  0.86904690  0.73088507  0.58863137    -0.23880
H4043       H  0.85379784  0.85936096  0.65941898     0.05290
H4044       H  0.89141112  0.85025619  0.67539039     0.08510
H4045       H  0.85454095  0.83701674  0.69275360     0.08510
H4046       H  0.88097125  0.73501003  0.56603056     0.08500
H4047       H  0.84426145  0.72267930  0.58419939     0.08500
H4048       H  0.88207577  0.71275402  0.59940343     0.05270
C4049       C  0.92174788  0.64566812  0.02197126    -0.20530
C4050       C  0.91486368  0.61745739  0.53307989    -0.07100
C4051       C  0.88289677  0.61013201  0.04051923     0.13770
C4052       C  0.85826526  0.63004734  0.03380981    -0.20590
C4053       C  0.86488068  0.65687641  0.01910184    -0.07100
C4054       C  0.89745478  0.66534288  0.01459647     0.13760
C4055       C  0.90738786  0.69451039  0.00104909    -0.23940
H4056       H  0.94630072  0.65123550  0.51617585     0.15050
H4057       H  0.83364460  0.62366433  0.03829830     0.15070
C4058       C  0.87464419  0.58054507  0.55362853    -0.23880
H4059       H  0.93371027  0.69795809  0.00124039     0.05290
H4060       H  0.89668908  0.71385038  0.01499611     0.08510
H4061       H  0.89988408  0.69437228  0.97630426     0.08510
H4062       H  0.88789724  0.57843953  0.57560988     0.08500
H4063       H  0.88100294  0.56160169  0.03653092     0.08500
H4064       H  0.84894420  0.57882890  0.05929772     0.05270
C4065       C  0.64491935  0.88189822  0.92646541    -0.20530
C4066       C  0.64001597  0.85356551  0.93815005    -0.07100
C4067       C  0.60872996  0.84070117  0.93696732     0.13770
C4068       C  0.58316800  0.85759164  0.92668581    -0.20590
C4069       C  0.58753551  0.88736373  0.91843107    -0.07100
C4070       C  0.61907100  0.89907301  0.91748589     0.13760
C4071       C  0.62520260  0.93066564  0.90948627    -0.23940
H4072       H  0.66881218  0.89163015  0.92660740     0.15050
H4073       H  0.55903386  0.84857847  0.92812864     0.15070
C4074       C  0.60162630  0.80954065  0.94717187    -0.23880
H4075       H  0.65112041  0.93632576  0.90869468     0.05290
H4076       H  0.61352582  0.94637534  0.92722218     0.08510
H4077       H  0.61499542  0.93332545  0.88620715     0.08510
H4078       H  0.60506620  0.80907913  0.47280842     0.08500
H4079       H  0.61759146  0.79302508  0.93450054     0.08500
H4080       H  0.57658113  0.80236582  0.94221758     0.05270
C4081       C  0.63156258  0.49356440  0.88873787    -0.20530
C4082       C  0.64157494  0.50778443  0.91741672    -0.07100
C4083       C  0.67388320  0.51687728  0.92043815     0.13770
C4084       C  0.69474575  0.51313812  0.89409454    -0.20590
C4085       C  0.68371986  0.00035052  0.86512971    -0.07100
C4086       C  0.65226670  0.48854240  0.86325656     0.13760
C4087       C  0.63921810  0.47183322  0.83402267    -0.23940
H4088       H  0.60683908  0.48640210  0.88589727     0.15050
H4089       H  0.71895006  0.02228189  0.89542241     0.15070
C4090       C  0.68559493  0.53230660  0.95054343    -0.23880
H4091       H  0.62884163  0.44980886  0.83965994     0.05290
H4092       H  0.65755771  0.96697931  0.81583984     0.08510
H4093       H  0.62020943  0.48526478  0.82403738     0.08510
H4094       H  0.68218347  0.51707203  0.96980138     0.08500
H4095       H  0.67197942  0.55326192  0.95619767     0.08500
H4096       H  0.71135776  0.53838140  0.94896701     0.05270
C4097       C  0.81909442  0.97437653  0.57237731    -0.20530
C4098       C  0.80594493  0.50324196  0.57644948    -0.07100
C4099       C  0.80838677  0.02235222  0.55153093     0.13770
C4100       C  0.82863604  0.01428781  0.52559679    -0.20590
C4101       C  0.84541929  0.98696596  0.52387056    -0.07100
C4102       C  0.83828478  0.96582903  0.54628431     0.13760
C4103       C  0.85204308  0.93455757  0.54355702    -0.23940
H4104       H  0.81584191  0.95898145  0.59073745     0.15050
H4105       H  0.83324546  0.03031955  0.50811909     0.15070
C4106       C  0.79031808  0.55146840  0.55307360    -0.23880
H4107       H  0.84251819  0.92057786  0.56216251     0.05290
H4108       H  0.87838593  0.93537815  0.54570730     0.08510
H4109       H  0.84559391  0.92314630  0.52061659     0.08510
H4110       H  0.79701822  0.56580581  0.57428324     0.08500
H4111       H  0.76437036  0.04650350  0.55418312     0.08500
H4112       H  0.79530660  0.06423662  0.53206182     0.05270
C4113       C  0.52438680  0.86477804  0.60833759    -0.20530
C4114       C  0.49623478  0.85229367  0.62021044    -0.07100
C4115       C  0.96694565  0.85652422  0.60503173     0.13770
C4116       C  0.96614952  0.87600950  0.58072712    -0.20590
C4117       C  0.49412272  0.88999915  0.57002061    -0.07100
C4118       C  0.52386876  0.88348553  0.58338429     0.13760
C4119       C  0.55507420  0.89722020  0.57294617    -0.23940
H4120       H  0.54685282  0.86096958  0.61959460     0.15050
H4121       H  0.94352973  0.88023113  0.56993292     0.15070
C4122       C  0.93637923  0.84030748  0.61296600    -0.23880
H4123       H  0.57546908  0.89036230  0.58701684     0.05290
H4124       H  0.55387724  0.92218230  0.57562988     0.08510
H4125       H  0.56029648  0.88963965  0.54818721     0.08510
H4126       H  0.91860662  0.85686696  0.62256045     0.08500
H4127       H  0.93968787  0.82292109  0.62983808     0.08500
H4128       H  0.92661652  0.82845195  0.59141260     0.05270
C4129       C  0.99309967  0.64152831  0.89122430    -0.20530
C4130       C  0.00007647  0.61206691  0.87925962    -0.07100
C4131       C  0.00312650  0.60603429  0.84646418     0.13770
C4132       C  0.00141420  0.62985962  0.82683567    -0.20590
C4133       C  0.99588955  0.65947747  0.83883745    -0.07100
C4134       C  0.99098592  0.66535623  0.87133754     0.13760
C4135       C  0.98456217  0.69679951  0.88505250    -0.23940
H4136       H  0.98978412  0.64597417  0.91625614     0.15050
H4137       H  0.50429443  0.62525572  0.80157142     0.15070
C4138       C  0.50673919  0.57434428  0.83128682    -0.23880
H4139       H  0.98184711  0.69758754  0.91092692     0.05290
H4140       H  0.96217353  0.70511044  0.87532713     0.08510
H4141       H  0.00469118  0.71204275  0.87923448     0.08510
H4142       H  0.98741765  0.55965339  0.84011767     0.08500
H4143       H  0.53032794  0.56535505  0.83686944     0.08500
H4144       H  0.50534654  0.57378382  0.80537519     0.05270
C4145       C  0.63963090  0.63902663  0.64183987    -0.20530
C4146       C  0.65371090  0.64297584  0.61220385    -0.07100
C4147       C  0.68730972  0.64926256  0.61187632     0.13770
C4148       C  0.70562948  0.63871991  0.63590798    -0.20590
C4149       C  0.69083372  0.62657183  0.66178253    -0.07100
C4150       C  0.65781486  0.63071520  0.66678982     0.13760
C4151       C  0.64087954  0.62252523  0.69638691    -0.23940
H4152       H  0.61402543  0.63879293  0.64458448     0.15050
H4153       H  0.73144039  0.63835654  0.63355994     0.15070
C4154       C  0.70491798  0.66725084  0.58830665    -0.23880
H4155       H  0.61517267  0.62832432  0.69634186     0.05290
H4156       H  0.65188193  0.63511471  0.71689053     0.08510
H4157       H  0.64229944  0.59792537  0.69886765     0.08510
H4158       H  0.68920444  0.67726001  0.57151552     0.08500
H4159       H  0.72292304  0.65298872  0.57533336     0.08500
H4160       H  0.71770787  0.68640091  0.60087603     0.05270
C4161       C  0.61775359  0.69348615  0.59117823    -0.20530
C4162       C  0.60613411  0.66345657  0.59009072    -0.07100
C4163       C  0.57277405  0.65908010  0.59755339     0.13770
C4164       C  0.55290374  0.68386031  0.59866665    -0.20590
C4165       C  0.56590247  0.71198967  0.60761118    -0.07100
C4166       C  0.59842698  0.71776215  0.60100879     0.13760
C4167       C  0.61350661  0.74866882  0.60561118    -0.23940
H4168       H  0.64265041  0.69783758  0.58615806     0.15050
H4169       H  0.52752574  0.68022467  0.60294293     0.15070
C4170       C  0.55708374  0.63202896  0.61159491    -0.23880
H4171       H  0.63824024  0.74912269  0.59589373     0.05290
H4172       H  0.61510158  0.75566950  0.63089068     0.08510
H4173       H  0.59939506  0.76506677  0.59336008     0.08510
H4174       H  0.57349900  0.61528688  0.61961924     0.08500
H4175       H  0.53942583  0.62127228  0.59512542     0.08500
H4176       H  0.54380236  0.63959977  0.63333878     0.05270
C4177       C  0.64824202  0.64195018  0.49427883    -0.20530
C4178       C  0.68084327  0.63642273  0.99391336    -0.07100
C4179       C  0.69151444  0.61861891  0.01706363     0.13770
C4180       C  0.67446458  0.61960711  0.54538434    -0.20590
C4181       C  0.64824946  0.63943210  0.55096945    -0.07100
C4182       C  0.63452613  0.65096678  0.52342886     0.13760
C4183       C  0.60820924  0.67404754  0.52263485    -0.23940
H4184       H  0.63790656  0.64946538  0.47317142     0.15050
H4185       H  0.68301526  0.60643761  0.56356298     0.15070
C4186       C  0.72202076  0.60134898  0.01272183    -0.23880
H4187       H  0.60124976  0.67782853  0.49831269     0.05290
H4188       H  0.61711316  0.69622098  0.53244114     0.08510
H4189       H  0.58581076  0.66764973  0.53446117     0.08510
H4190       H  0.74240367  0.61682729  0.00852673     0.08500
H4191       H  0.71981506  0.58471652  0.99229308     0.08500
H4192       H  0.72733007  0.58900212  0.03364932     0.05270
C4193       C  0.59155716  0.60344208  0.55714465    -0.20530
C4194       C  0.61540365  0.60684618  0.58007580    -0.07100
C4195       C  0.62158353  0.58115132  0.59737541     0.13770
C4196       C  0.59876802  0.55793641  0.59718442    -0.20590
C4197       C  0.57277982  0.55771449  0.57735037    -0.07100
C4198       C  0.57021496  0.57968386  0.55548697     0.13760
C4199       C  0.54504985  0.57894279  0.53031040    -0.23940
H4200       H  0.58741313  0.62082144  0.54180922     0.15050
H4201       H  0.60252942  0.53866450  0.61084224     0.15070
C4202       C  0.65220027  0.57433646  0.61316076    -0.23880
H4203       H  0.54762443  0.59815324  0.51519845     0.05290
H4204       H  0.02088665  0.58048785  0.54118122     0.08510
H4205       H  0.54710232  0.55815120  0.51462983     0.08510
H4206       H  0.64782572  0.57326930  0.63866335     0.08500
H4207       H  0.67184601  0.59000716  0.60886133     0.08500
H4208       H  0.66087865  0.55196295  0.60378639     0.05270
C4209       C  0.90566415  0.90117551  0.84457397    -0.20530
C4210       C  0.87416189  0.90892818  0.85437031    -0.07100
C4211       C  0.86584830  0.93995147  0.85334818     0.13770
C4212       C  0.89011309  0.96132208  0.84993497    -0.20590
C4213       C  0.92204052  0.95293959  0.84985238    -0.07100
C4214       C  0.92974481  0.92274354  0.84227592     0.13760
C4215       C  0.96329401  0.91239586  0.83483638    -0.23940
H4216       H  0.91300332  0.87828020  0.84075441     0.15050
H4217       H  0.88451449  0.98510319  0.85267832     0.15070
C4218       C  0.83245247  0.95188490  0.85760736    -0.23880
H4219       H  0.96347206  0.88899886  0.82392415     0.05290
H4220       H  0.97735771  0.91239284  0.85656599     0.08510
H4221       H  0.97479736  0.92706434  0.81788593     0.08510
H4222       H  0.82127149  0.94587387  0.87987271     0.08500
H4223       H  0.83187843  0.97685266  0.85791944     0.08500
H4224       H  0.81817082  0.94361191  0.83743885     0.05270
C4225       C  0.80467952  0.88978522  0.90735122    -0.20530
C4226       C  0.83670043  0.89537339  0.89849554    -0.07100
C4227       C  0.85708940  0.90403685  0.92478824     0.13770
C4228       C  0.84833477  0.89327811  0.95420939    -0.20590
C4229       C  0.81627183  0.88533133  0.95938823    -0.07100
C4230       C  0.79502508  0.89639225  0.93814664     0.13760
C4231       C  0.76029375  0.90145761  0.94603920    -0.23940
H4232       H  0.78860514  0.87543035  0.89348038     0.15050
H4233       H  0.86571977  0.89154184  0.97243667     0.15070
C4234       C  0.88473065  0.92627435  0.92386225    -0.23880
H4235       H  0.75386620  0.92445345  0.94006967     0.05290
H4236       H  0.75551334  0.89959113  0.97140651     0.08510
H4237       H  0.74495920  0.88497672  0.93238922     0.08510
H4238       H  0.87559452  0.94827478  0.91754226     0.08500
H4239       H  0.90407064  0.91938046  0.90729701     0.08500
H4240       H  0.89576087  0.93012329  0.94726513     0.05270
C4241       C  0.79418880  0.89139611  0.83895706    -0.20530
C4242       C  0.82644451  0.88172285  0.83619760    -0.07100
C4243       C  0.83744850  0.87445940  0.80423206     0.13770
C4244       C  0.81947074  0.88354416  0.77920357    -0.20590
C4245       C  0.79007920  0.89702152  0.78455795    -0.07100
C4246       C  0.77491588  0.89404979  0.81324172     0.13760
C4247       C  0.73953972  0.89947739  0.81755109    -0.23940
H4248       H  0.78453277  0.90347058  0.85919269     0.15050
H4249       H  0.83025302  0.88355959  0.75600639     0.15070
C4250       C  0.86881758  0.86062032  0.79375262    -0.23880
H4251       H  0.73177335  0.89719271  0.84219454     0.05290
H4252       H  0.72616295  0.88241898  0.80254927     0.08510
H4253       H  0.73280315  0.92215030  0.81101560     0.08510
H4254       H  0.88253515  0.85148387  0.81203832     0.08500
H4255       H  0.88395645  0.87751125  0.78233179     0.08500
H4256       H  0.86421637  0.84133279  0.77642382     0.05270
C4257       C  0.89477804  0.85381729  0.88828719    -0.20530
C4258       C  0.86622679  0.85391305  0.87073734    -0.07100
C4259       C  0.85713669  0.82552994  0.85598304     0.13770
C4260       C  0.88150850  0.80526881  0.84682969    -0.20590
C4261       C  0.91335218  0.81226798  0.85493211    -0.07100
C4262       C  0.91932244  0.83420235  0.87908264     0.13760
C4263       C  0.95196469  0.83946018  0.89297912    -0.23940
H4264       H  0.90133009  0.87175028  0.90465608     0.15050
H4265       H  0.87604570  0.78601158  0.83080206     0.15070
C4266       C  0.82320719  0.81644449  0.84857991    -0.23880
H4267       H  0.96106350  0.86216826  0.88778284     0.05290
H4268       H  0.96942674  0.82244307  0.88370668     0.08510
H4269       H  0.95031627  0.83818291  0.91874241     0.08510
H4270       H  0.81985654  0.81422753  0.82285248     0.08500
H4271       H  0.80590380  0.83260756  0.85962572     0.08500
H4272       H  0.81780668  0.79433206  0.85812740     0.05270
loop_ 
_geom_bond_atom_site_label_1 
_geom_bond_atom_site_label_2 
_geom_bond_distance 
_geom_bond_site_symmetry_2 
_ccdc_geom_bond_type 
C1          C472   1.555       .  S
C1          C488   1.577       .  S
C1          C504   1.589       .  S
C1          C520   1.572       .  S
C2          C408   1.559       .  S
C2          C424   1.552       .  S
C2          C443   1.555       .  S
C2          C456   1.548       .  S
C3           N21   1.372       .  A
C3           C40   1.440       .  S
C3          C331   1.492       .  S
N4           N21   1.337       .  A
N4           N26   1.313       .  A
N4        Co1109   2.156       .  S
C5           N30   1.332       .  A
C5           C43   1.459       .  S
C5         H2186   1.081       .  S
H6           C47   1.081       .  S
C7           N31   1.355       .  A
C7           C11   1.480       .  S
C7           H36   1.081       .  S
Co8          N26   2.015       .  S
Co8         N550   2.066       .  S
Co8        N1116   2.140       .  S
Co8        N1626   2.038       .  S
Co8       Cl3256   2.436   1_455  S
N9           C47   1.343       .  A
N9         N2152   1.319       .  A
N9          Co10   2.090       .  S
Co10         N13   2.050       .  S
Co10       N3234   2.060       .  S
Co10       N1085   2.139       .  S
Co10      Cl1654   2.455   1_554  S
C11         N583   1.342       .  A
C11         C897   1.488       .  S
N12          N19   1.321       .  A
N12          N42   1.314       .  A
N12       Co1113   2.070       .  S
N13          N49   1.316       .  A
N13         N565   1.318   1_554  A
N14          C43   1.341       .  A
N14          N24   1.311       .  A
H15          C40   1.082       .  S
N16          N37   1.319       .  A
N16        N2145   1.319   1_455  A
N16        Co542   2.067   1_554  S
N17          N22   1.335       .  A
N17         N569   1.318   1_554  A
N17       Co1078   2.139       .  S
C18          N22   1.366       .  A
C18         C312   1.483       .  S
C18         C580   1.442   1_554  S
N19          C34   1.333       .  A
N19       Co3245   2.051       .  S
C20          N48   1.356   1_545  A
C20          C23   1.487       .  S
C20          H54   1.081   1_545  S
C23          N44   1.341       .  A
C23         C344   1.492       .  S
N24          N30   1.319       .  A
N24       Co1610   2.038   1_544  S
N25          C51   1.342       .  A
N25          N27   1.317       .  A
N25       Co2177   2.090   1_545  S
N26          C40   1.325       .  A
N27          N55   1.326       .  A
N27         Co45   2.076       .  S
H28          C51   1.080       .  S
H29          C46   1.082       .  S
N30       Co3214   2.060   1_455  S
N31         N547   1.318       .  A
N31       Co1113   2.123       .  S
N32          N44   1.313       .  A
N32          N48   1.316   1_545  A
N32         Co41   2.041   1_545  S
C33          N37   1.344   1_655  A
C33         C379   1.478       .  S
C33        C2183   1.465       .  S
C34          C53   1.456       .  S
C34          H38   1.080       .  S
N35          C46   1.326       .  A
N35         N551   1.318       .  A
N35         Co45   2.039       .  S
C39          N55   1.349       .  A
C39          C51   1.465       .  S
C39         C392   1.484       .  S
Co41       N1072   2.156       .  S
Co41       N3223   2.051   1_455  S
Co41       N2161   2.090   1_565  S
Co41      Cl2188   2.445   1_455  S
N42          C53   1.350       .  A
C43         C459   1.432       .  S
Co45       N1080   2.070   1_545  S
Co45       N1099   2.123       .  S
Co45        Cl52   2.438   1_545  S
C46         C552   1.442       .  S
C47        C2169   1.465       .  S
N48       Co1076   2.140       .  S
N49         C545   1.342       .  A
H50        C2141   1.081       .  S
Cl52      Co3212   2.436       .  S
Cl52      Co1612   2.454   1_565  S
Cl52      Co2177   2.445       .  S
C53         C475   1.458       .  S
C56          N74   1.355       .  A
C56          C93   1.461       .  S
C56         C440   1.476       .  S
N57          N74   1.323       .  A
N57          N79   1.316       .  A
N57        Co628   2.065       .  S
C58          N83   1.347       .  A
C58          C96   1.466       .  S
C58         H103   1.081       .  S
H59         C100   1.081       .  S
C60          N84   1.355       .  A
C60          C64   1.481       .  S
C60          H89   1.081       .  S
Co61         N79   2.060       .  S
Co61         N69   2.107       .  S
Co61         N77   2.064       .  S
Co61        N635   2.110       .  S
Co61       Cl105   2.453       .  S
N62         C100   1.331       .  A
N62          N69   1.315       .  A
N62         Co63   2.047       .  S
Co63         N66   2.072       .  S
Co63         N83   2.101       .  S
Co63         N70   2.036       .  S
Co63       Cl105   2.422       .  S
C64         N102   1.342       .  A
C64         C267   1.502       .  S
N65          N72   1.319       .  A
N65          N95   1.323       .  A
N65         Co98   2.088       .  S
N66          N84   1.320       .  A
N66         N102   1.322       .  A
N67          C96   1.348       .  A
N67          N77   1.324       .  A
H68          C93   1.080       .  S
N69          N90   1.329       .  A
N70          N88   1.316       .  A
N70          N75   1.303       .  A
C71          N75   1.342       .  A
C71          C99   1.478       .  S
C71         C491   1.486       .  S
N72          C87   1.349       .  A
N72        Co628   2.097       .  S
C73         N101   1.350       .  A
C73          C76   1.474       .  S
C73         H107   1.081       .  S
C76          N97   1.349       .  A
C76         C248   1.507       .  S
N77          N83   1.318       .  A
N78         C104   1.330       .  A
N78          N80   1.320       .  A
N78         Co94   2.057       .  S
N79          C93   1.329       .  A
N80         N108   1.330       .  A
N80        Co632   2.116   1_554  S
H81         C104   1.080       .  S
H82          C99   1.081       .  S
N84         Co98   2.126       .  S
N85          N97   1.326       .  A
N85         N101   1.319       .  A
N85         Co94   2.090       .  S
C86          N90   1.357       .  A
C86         C100   1.448       .  S
C86         C280   1.471       .  S
C87         C106   1.469       .  S
C87          H91   1.082       .  S
N88          C99   1.357       .  A
N88         Co98   2.105       .  S
C92         N108   1.359       .  A
C92         C104   1.446       .  S
C92         C296   1.472       .  S
Co94        N591   2.065       .  S
Co94        N606   2.097       .  S
Co94       Cl639   2.440   1_554  S
N95         C106   1.351       .  A
C96         C328   1.495       .  S
Co98        N614   2.115       .  S
Co98       Cl105   2.463       .  S
N101       Co595   2.110   1_554  S
Cl105      Co628   2.439       .  S
C106        C315   1.503       .  S
C109        N127   1.343       .  A
C109        C146   1.463       .  S
C109        C283   1.471       .  S
N110        N127   1.322       .  A
N110        N132   1.322       .  A
N110       Co147   2.080       .  S
C111        N136   1.339       .  A
C111       C2285   1.459       .  S
C111        H156   1.081       .  S
H112        C153   1.078       .  S
C113        N137   1.329       .  A
C113        C117   1.439       .  S
C113        H142   1.082       .  S
Co114       N132   2.091       .  S
Co114       N122   2.080       .  S
Co114       N154   2.051       .  S
Co114       N130   2.085       .  S
Co114     Cl2294   2.435   1_455  S
N115        C153   1.357       .  A
N115        N122   1.320       .  A
N115      Co2252   2.135   1_455  S
Co116       N119   2.114       .  S
Co116       N136   2.078       .  S
Co116       N123   2.089       .  S
Co116      N2251   2.135       .  S
Co116      Cl158   2.468       .  S
C117        N155   1.361       .  A
C117        C523   1.461       .  S
N118        N125   1.317       .  A
N118        N148   1.329       .  A
N118       Co151   2.103       .  S
N119        N137   1.322       .  A
N119        N155   1.325       .  A
N120        C149   1.350   1_455  A
N120        N130   1.324       .  A
H121        C146   1.081       .  S
N122        N143   1.326       .  A
N123        N141   1.321       .  A
N123        N128   1.323       .  A
C124        N128   1.346       .  A
C124        C152   1.465       .  S
C124        C299   1.485       .  S
N125       C2276   1.335       .  A
N125      Co2283   2.067       .  S
C126        N154   1.336       .  A
C126        C129   1.449       .  S
C126        H160   1.080       .  S
C129        N150   1.354       .  A
C129        C427   1.464       .  S
N130       N2272   1.318   1_455  A
N131        C157   1.352       .  A
N131        N133   1.315       .  A
N131      Co2283   2.110       .  S
N132        C146   1.344       .  A
N133        N161   1.323       .  A
N133       Co151   2.074       .  S
H134        C157   1.078       .  S
H135        C152   1.081       .  S
N136       N2266   1.318       .  A
N137       Co151   2.045       .  S
N138        N150   1.315       .  A
N138        N154   1.316       .  A
N138       Co147   2.069       .  S
C139        N143   1.350       .  A
C139        C153   1.490       .  S
C139        C232   1.527       .  S
C140       N2261   1.335       .  A
C140       C2295   1.456   1_455  S
C140        H144   1.082       .  S
N141        C152   1.344       .  A
N141       Co151   2.090       .  S
C145        N161   1.351       .  A
C145        C157   1.486       .  S
C145        C219   1.518       .  S
Co147      N2261   2.067       .  S
Co147      N2267   2.109   1_455  S
Co147     Cl2294   2.462   1_455  S
N148        C159   1.356       .  A
C149        C376   1.476       .  S
C149       C2247   1.459       .  S
Co151      Cl158   2.432       .  S
Cl158     Co2250   2.436       .  S
Cl158     Co2283   2.462       .  S
C159        C395   1.480       .  S
C159       C2276   1.456       .  S
C162        N180   1.357       .  A
C162        C199   1.449       .  S
C162        C347   1.480       .  S
N163        N180   1.334       .  A
N163        N185   1.318       .  A
N163      Co1268   2.110       .  S
C164        N189   1.336       .  A
C164        C202   1.461       .  S
C164        H209   1.081       .  S
H165        C206   1.081       .  S
C166        N190   1.350       .  A
C166        C170   1.471       .  S
C166        H195   1.082       .  S
Co167       N207   2.130       .  S
Co167       N183   2.064       .  S
Co167      N1253   2.050       .  S
Co167      N1243   2.121       .  S
Co167     Cl1279   2.452       .  S
N168        C206   1.349       .  A
N168        N175   1.322       .  A
N168       Co169   2.112       .  S
Co169       N172   2.087       .  S
Co169      N1257   2.087       .  S
Co169      N1244   2.108       .  S
Co169      Cl211   2.456       .  S
C170        N208   1.351       .  A
C170        C251   1.501       .  S
N171        N178   1.319       .  A
N171        N201   1.326       .  A
N171       Co204   2.063       .  S
N172        N190   1.320       .  A
N172        N208   1.326       .  A
N173        C202   1.347       .  A
N173        N183   1.323       .  A
H174        C199   1.082       .  S
N175        N196   1.334       .  A
N175      Co1235   2.121       .  S
N176        N194   1.319       .  A
N176        N181   1.331       .  A
N176      Co1237   2.109       .  S
C177        N181   1.357       .  A
C177        C205   1.458       .  S
C177        C360   1.488       .  S
N178        C193   1.327       .  A
N178      Co1268   2.062       .  S
C179        N207   1.354       .  A
C179        C182   1.477       .  S
C179        H213   1.082       .  S
C182        N203   1.346       .  A
C182        C264   1.499       .  S
N183        N189   1.319       .  A
N184        C210   1.342       .  A
N184        N186   1.321       .  A
N184       Co200   2.093       .  S
N185        C199   1.327       .  A
N185      Co1235   2.050       .  S
N186        N214   1.333       .  A
N186      Co1272   2.117   1_545  S
H187        C210   1.080       .  S
H188        C205   1.082   1_565  S
N189      Co1237   2.087       .  S
N190       Co204   2.120       .  S
N191        N203   1.323       .  A
N191        N207   1.321       .  A
N191       Co200   2.077       .  S
C192        N196   1.357       .  A
C192        C206   1.466       .  S
C192        C235   1.509       .  S
C193        C212   1.455       .  S
C193        H197   1.080       .  S
N194        C205   1.334       .  A
N194      Co1272   2.070   1_545  S
C198        N214   1.358       .  A
C198        C210   1.459       .  S
C198        C216   1.498       .  S
Co200      N1231   2.110       .  S
Co200      N1246   2.062   1_545  S
Co200     Cl1279   2.454       .  S
N201        C212   1.346       .  A
C202        C411   1.466       .  S
Co204      N1254   2.116       .  S
Co204      N1262   2.070       .  S
Co204      Cl211   2.450       .  S
Cl211     Co1235   2.452       .  S
Cl211     Co1268   2.454       .  S
C212        C507   1.462       .  S
C215        H222   1.084       .  S
C215        C216   1.404       .  A
C215        C220   1.419       .  A
C216        C217   1.415       .  A
C217        C224   1.510       .  S
C217        C218   1.408       .  A
C218        H223   1.084       .  S
C218        C219   1.412       .  A
C219        C220   1.426       .  A
C220        C221   1.502       .  S
C221        H225   1.111       .  S
C221        H226   1.109       .  S
C221        H227   1.110       .  S
C224        H228   1.107       .  S
C224        H229   1.110       .  S
C224        H230   1.111       .  S
C231        H238   1.084       .  S
C231        C232   1.414       .  A
C231        C236   1.416       .  A
C232        C233   1.426       .  A
C233        C240   1.503       .  S
C233        C234   1.423       .  A
C234        H239   1.084       .  S
C234        C235   1.406       .  A
C235        C236   1.415       .  A
C236        C237   1.508       .  S
C237        H241   1.111       .  S
C237        H242   1.111       .  S
C237        H243   1.110       .  S
C240        H244   1.109       .  S
C240        H245   1.110       .  S
C240        H246   1.111       .  S
C247        H254   1.082       .  S
C247        C248   1.407       .  A
C247        C252   1.412       .  A
C248        C249   1.423       .  A
C249        C256   1.507       .  S
C249        C250   1.414       .  A
C250        H255   1.084       .  S
C250        C251   1.404       .  A
C251        C252   1.420       .  A
C252        C253   1.508       .  S
C253        H257   1.111       .  S
C253        H258   1.111       .  S
C253        H259   1.109       .  S
C256        H260   1.107       .  S
C256        H261   1.110       .  S
C256        H262   1.111       .  S
C263        H270   1.084       .  S
C263        C264   1.402       .  A
C263        C268   1.413       .  A
C264        C265   1.422       .  A
C265        C272   1.508       .  S
C265        C266   1.412       .  A
C266        H271   1.083       .  S
C266        C267   1.404       .  A
C267        C268   1.424       .  A
C268        C269   1.508       .  S
C269        H273   1.111       .  S
C269        H274   1.110       .  S
C269        H275   1.108       .  S
C272        H276   1.109       .  S
C272        H277   1.111       .  S
C272        H278   1.111       .  S
C279        H286   1.082       .  S
C279        C280   1.402       .  A
C279        C284   1.405       .  A
C280        C281   1.412       .  A
C281        C288   1.508       .  S
C281        C282   1.402       .  A
C282        H287   1.084       .  S
C282        C283   1.400       .  A
C283        C284   1.414       .  A
C284        C285   1.507       .  S
C285        H289   1.111       .  S
C285        H290   1.111       .  S
C285        H291   1.109       .  S
C288        H292   1.110       .  S
C288        H293   1.108       .  S
C288        H294   1.111       .  S
C295        H302   1.084       .  S
C295        C296   1.400       .  A
C295        C300   1.407       .  A
C296        C297   1.413       .  A
C297        C304   1.508       .  S
C297        C298   1.403       .  A
C298        H303   1.083       .  S
C298        C299   1.405       .  A
C299        C300   1.417       .  A
C300        C301   1.508       .  S
C301        H305   1.111       .  S
C301        H306   1.109       .  S
C301        H307   1.110       .  S
C304        H308   1.108       .  S
C304        H309   1.110       .  S
C304        H310   1.111       .  S
C311        H852   1.085       .  S
C311        C316   1.406       .  A
C311        C846   1.400       .  A
C312        C845   1.400       .  A
C312        C847   1.411       .  A
C313        C854   1.503       .  S
C313        C314   1.415       .  A
C313        C846   1.411       .  A
C314        H319   1.083       .  S
C314        C315   1.410       .  A
C315        C316   1.424       .  A
C316        C317   1.509       .  S
C317        H321   1.111       .  S
C317        H322   1.109       .  S
C317        H323   1.109       .  S
H318        C845   1.085       .  S
C320        C847   1.503       .  S
C320        H324   1.110       .  S
C320        H859   1.110       .  S
C320        H860   1.104       .  S
H325        C854   1.110       .  S
H326        C854   1.104       .  S
C327        H334   1.084       .  S
C327        C328   1.400       .  A
C327        C332   1.408       .  A
C328        C329   1.422       .  A
C329        C336   1.507       .  S
C329        C330   1.410       .  A
C330        H335   1.084       .  S
C330        C331   1.404       .  A
C331        C332   1.413       .  A
C332        C333   1.488       .  S
C333        H337   1.111       .  S
C333        H338   1.109       .  S
C333        H339   1.105       .  S
C336        H341   1.109       .  S
C336        H342   1.111       .  S
C336        H874   1.109       .  S
H340        C870   1.109       .  S
C343        H350   1.085       .  S
C343        C344   1.408   1_565  A
C343        C348   1.392       .  A
C344        C345   1.412       .  A
C345        C352   1.503       .  S
C345        C346   1.419       .  A
C346       H1419   1.083       .  S
C346       C1415   1.411       .  A
C347       C1414   1.411       .  A
C347       C1416   1.411       .  A
C348        C349   1.515       .  S
C348       C1415   1.411   1_565  A
C349        H353   1.107       .  S
C349        H355   1.111       .  S
C349       H1422   1.108       .  S
H351       C1414   1.083       .  S
C352        H356   1.110       .  S
C352        H357   1.111       .  S
C352        H358   1.111       .  S
H354       C1417   1.108       .  S
C359        H366   1.084       .  S
C359        C364   1.401       .  A
C359       C1428   1.403       .  A
C360       C1427   1.403   1_545  A
C360       C1429   1.411       .  A
C361       C1436   1.505       .  S
C361        C362   1.417       .  A
C361       C1428   1.411       .  A
C362        H367   1.083       .  S
C362        C363   1.410       .  A
C363        C545   1.488       .  S
C363        C364   1.416       .  A
C364        C365   1.510       .  S
C365        H369   1.111       .  S
C365        H370   1.108       .  S
C365        H371   1.109       .  S
C368       C1429   1.505       .  S
C368        H372   1.110       .  S
C368       H1441   1.110       .  S
C368       H1442   1.111       .  S
H373       C1436   1.110       .  S
H374       C1436   1.111       .  S
C375        H382   1.084       .  S
C375        C376   1.400   1_455  A
C375        C380   1.401       .  A
C376       C2513   1.416       .  A
C377        C384   1.506       .  S
C377        C378   1.402       .  A
C377       C2512   1.416       .  A
C378        H383   1.085       .  S
C378       C2515   1.401       .  A
C379        C380   1.420   1_655  A
C379       C2514   1.401       .  A
C380        C381   1.510       .  S
C381        H385   1.111       .  S
C381        H386   1.110       .  S
C381        H387   1.110       .  S
C384        H388   1.109       .  S
C384        H389   1.107       .  S
C384        H390   1.111       .  S
C391        H398   1.084       .  S
C391        C392   1.407       .  A
C391        C396   1.410       .  A
C392        C393   1.416       .  A
C393       C2536   1.508       .  S
C393        C394   1.402       .  A
C394       H2535   1.084       .  S
C394        C395   1.402       .  A
C395        C396   1.411       .  A
C396        C397   1.506       .  S
C397        H401   1.111       .  S
C397        H402   1.110       .  S
C397        H403   1.111       .  S
H399       C2530   1.084       .  S
C400       C2529   1.508       .  S
C400        H405   1.107       .  S
C400        H406   1.111       .  S
C400       H2540   1.111   1_455  S
H404       C2536   1.111       .  S
C407        H414   1.077       .  S
C407        C408   1.413       .  A
C407        C412   1.395       .  A
C408        C409   1.430       .  A
C409        C416   1.509       .  S
C409        C410   1.404       .  A
C410        H415   1.084       .  S
C410        C411   1.400       .  A
C411        C412   1.409       .  A
C412        C413   1.508       .  S
C413        H417   1.111       .  S
C413        H418   1.110       .  S
C413        H419   1.110       .  S
C416        H420   1.103       .  S
C416        H421   1.110       .  S
C416        H422   1.111       .  S
C423        H430   1.079       .  S
C423        C424   1.413       .  A
C423        C428   1.397       .  A
C424        C425   1.442       .  A
C425        C432   1.519       .  S
C425        C426   1.389       .  A
C426        H431   1.087       .  S
C426        C427   1.389       .  A
C427        C428   1.411       .  A
C428        C429   1.506       .  S
C429        H433   1.111       .  S
C429        H434   1.108       .  S
C429        H435   1.110       .  S
C432        H436   1.097       .  S
C432        H437   1.109       .  S
C432        H438   1.112       .  S
C439        H446   1.084       .  S
C439        C444   1.402   1_556  A
C439        C974   1.391       .  A
C440        C441   1.394       .  A
C440        C973   1.391       .  A
C441        C448   1.503       .  S
C441        C976   1.397       .  A
C442        H447   1.075       .  S
C442        C443   1.425       .  A
C442        C975   1.397       .  A
C443        C444   1.449       .  A
C444        C445   1.520       .  S
C445        H449   1.111   1_554  S
C445        H450   1.106       .  S
C445        H451   1.103       .  S
C448        H452   1.109       .  S
C448        H453   1.110       .  S
C448        H454   1.111       .  S
C455        H462   1.067       .  S
C455        C456   1.410       .  A
C455        C460   1.373       .  A
C456        C457   1.434       .  A
C457        C464   1.503       .  S
C457        C458   1.396       .  A
C458        H463   1.086       .  S
C458        C459   1.390       .  A
C459        C460   1.407       .  A
C460        C461   1.517       .  S
C461        H465   1.111       .  S
C461        H467   1.108       .  S
C461       H2602   1.108       .  S
C464        H468   1.109       .  S
C464        H469   1.093       .  S
C464        H470   1.111       .  S
H466       C2597   1.108       .  S
C471        H478   1.069       .  S
C471        C472   1.419       .  A
C471        C476   1.389       .  A
C472        C473   1.433       .  A
C473        C480   1.507       .  S
C473        C474   1.395       .  A
C474        H479   1.085       .  S
C474        C475   1.393       .  A
C475        C476   1.401       .  A
C476        C477   1.508       .  S
C477        H481   1.111       .  S
C477        H482   1.109       .  S
C477        H483   1.110       .  S
C480        H484   1.104       .  S
C480        H485   1.111       .  S
C480        H486   1.097       .  S
C487        H494   1.077       .  S
C487        C488   1.412       .  A
C487        C492   1.387       .  A
C488        C489   1.450       .  A
C489        C496   1.513       .  S
C489        C490   1.420       .  A
C490        H495   1.083       .  S
C490        C491   1.402       .  A
C491        C492   1.400       .  A
C492        C493   1.505       .  S
C493        H497   1.110       .  S
C493        H498   1.111       .  S
C493        H499   1.109       .  S
C496        H500   1.109       .  S
C496        H501   1.102       .  S
C496        H502   1.111       .  S
C503        H510   1.065       .  S
C503        C504   1.425       .  A
C503        C508   1.388       .  A
C504        C505   1.455       .  A
C505        C512   1.508       .  S
C505        C506   1.405       .  A
C506        H511   1.085       .  S
C506        C507   1.386       .  A
C507        C508   1.389       .  A
C508        C509   1.511       .  S
C509        H513   1.111       .  S
C509        H514   1.110       .  S
C509        H515   1.107       .  S
C512        H516   1.083       .  S
C512        H517   1.111       .  S
C512        H518   1.111       .  S
C519        H526   1.060       .  S
C519        C520   1.422       .  A
C519        C524   1.393       .  A
C520        C521   1.421       .  A
C521        C528   1.504       .  S
C521        C522   1.405       .  A
C522        H527   1.084       .  S
C522        C523   1.408       .  A
C523        C524   1.394       .  A
C524        C525   1.507       .  S
C525        H529   1.111       .  S
C525        H530   1.110       .  S
C525        H531   1.110       .  S
C528        H532   1.110       .  S
C528        H533   1.106       .  S
C528        H534   1.111       .  S
C535       C1006   1.556       .  S
C535       C1022   1.578       .  S
C535       C1038   1.588       .  S
C535       C1054   1.573       .  S
C536        C942   1.559       .  S
C536        C958   1.552       .  S
C536        C977   1.555       .  S
C536        C990   1.548       .  S
C537        N555   1.372       .  A
C537        C574   1.440       .  S
C537        C865   1.492       .  S
N538        N555   1.337       .  A
N538        N560   1.313       .  A
N538      Co1643   2.157       .  S
C539        N564   1.332       .  A
C539        C577   1.459       .  S
C539       H2720   1.081       .  S
H540        C581   1.081       .  S
C541        N565   1.355       .  A
C541        C545   1.480   1_556  S
C541        H570   1.081       .  S
Co542       N560   2.015       .  S
Co542      N1650   2.140       .  S
Co542      N1092   2.038   1_556  S
Co542     Cl3790   2.437   1_455  S
N543        C581   1.343       .  A
N543       N2686   1.319       .  A
N543       Co544   2.090       .  S
Co544       N547   2.049       .  S
Co544      N3768   2.059       .  S
Co544      N1619   2.139       .  S
Co544     Cl1120   2.454       .  S
N546        N553   1.321       .  A
N546        N576   1.314       .  A
N546      Co1647   2.070       .  S
N547        N583   1.315       .  A
N548        C577   1.341       .  A
N548        N558   1.311       .  A
H549        C574   1.082       .  S
N550       N2679   1.319   1_455  A
N550        N571   1.319       .  A
N551        N556   1.335       .  A
N551      Co1612   2.139       .  S
C552        N556   1.366       .  A
C552        C846   1.483       .  S
N553        C568   1.333       .  A
N553      Co3779   2.052       .  S
C554        N582   1.356   1_545  A
C554        C557   1.487       .  S
C554        H588   1.081   1_545  S
C557        N578   1.341       .  A
C557        C878   1.492       .  S
N558        N564   1.319       .  A
N558      Co1076   2.038   1_545  S
N559        C585   1.342       .  A
N559        N561   1.317       .  A
N559      Co2711   2.091   1_545  S
N560        C574   1.326       .  A
N561        N589   1.325       .  A
N561       Co579   2.076       .  S
H562        C585   1.080       .  S
H563        C580   1.082       .  S
N564      Co3748   2.060   1_455  S
N565      Co1647   2.123       .  S
N566        N578   1.313       .  A
N566        N582   1.316   1_545  A
N566       Co575   2.041   1_545  S
C567        N571   1.344   1_655  A
C567       C2717   1.465       .  S
C567        C913   1.478       .  S
C568        C587   1.456       .  S
C568        H572   1.080       .  S
N569        C580   1.326       .  A
N569       Co579   2.039       .  S
C573        N589   1.348       .  A
C573        C585   1.466       .  S
C573        C926   1.484       .  S
Co575      N1606   2.156       .  S
Co575      N3757   2.051   1_455  S
Co575      N2695   2.090   1_565  S
Co575     Cl2722   2.445   1_455  S
N576        C587   1.350       .  A
C577        C993   1.432       .  S
Co579      N1614   2.070   1_545  S
Co579      N1633   2.123       .  S
Co579      Cl586   2.438   1_545  S
C581       C2703   1.465       .  S
N582      Co1610   2.140       .  S
H584       C2675   1.081       .  S
Cl586     Co3746   2.436       .  S
Cl586     Co1078   2.455   1_566  S
Cl586     Co2711   2.445       .  S
C587       C1009   1.459       .  S
C590        N608   1.355   1_556  A
C590        C627   1.461       .  S
C590        C974   1.475       .  S
N591        N608   1.323       .  A
N591        N613   1.316   1_554  A
C592        N617   1.348       .  A
C592        C630   1.467       .  S
C592        H637   1.081       .  S
H593        C634   1.081       .  S
C594        N618   1.355       .  A
C594        C598   1.481       .  S
C594        H623   1.081       .  S
Co595       N613   2.060       .  S
Co595       N603   2.106       .  S
Co595       N611   2.064       .  S
Co595      Cl639   2.451       .  S
N596        C634   1.332       .  A
N596        N603   1.315       .  A
N596       Co597   2.048       .  S
Co597       N600   2.070       .  S
Co597       N617   2.103       .  S
Co597       N604   2.037       .  S
Co597      Cl639   2.424       .  S
C598        N636   1.342       .  A
C598        C801   1.502       .  S
N599        N606   1.319   1_556  A
N599        N629   1.323       .  A
N599       Co632   2.088       .  S
N600        N618   1.320       .  A
N600        N636   1.322       .  A
N601        C630   1.347       .  A
N601        N611   1.323       .  A
H602        C627   1.080       .  S
N603        N624   1.329       .  A
N604        N622   1.317       .  A
N604        N609   1.303       .  A
C605        N609   1.342       .  A
C605        C633   1.477       .  S
C605       C1025   1.486       .  S
N606        C621   1.349       .  A
C607        N635   1.350       .  A
C607        C610   1.474       .  S
C607        H641   1.081       .  S
C610        N631   1.349       .  A
C610        C782   1.508       .  S
N611        N617   1.318       .  A
N612        C638   1.330       .  A
N612        N614   1.320       .  A
N612       Co628   2.057       .  S
N613        C627   1.329       .  A
N614        N642   1.330       .  A
H615        C638   1.080       .  S
H616        C633   1.081       .  S
N618       Co632   2.127       .  S
N619        N631   1.327       .  A
N619        N635   1.320       .  A
N619       Co628   2.091       .  S
C620        N624   1.357       .  A
C620        C634   1.448       .  S
C620        C814   1.471       .  S
C621        C640   1.469       .  S
C621        H625   1.082       .  S
N622        C633   1.358       .  A
N622       Co632   2.105       .  S
C626        N642   1.359       .  A
C626        C638   1.446       .  S
C626        C830   1.472       .  S
N629        C640   1.351   1_556  A
C630        C862   1.495       .  S
Co632      Cl639   2.462       .  S
C640        C849   1.503       .  S
C643        N661   1.343       .  A
C643        C680   1.463       .  S
C643        C817   1.471       .  S
N644        N661   1.322       .  A
N644        N666   1.322       .  A
N644       Co681   2.080       .  S
C645        N670   1.340       .  A
C645       C2819   1.459       .  S
C645        H690   1.081       .  S
H646        C687   1.078       .  S
C647        N671   1.329       .  A
C647        C651   1.439       .  S
C647        H676   1.082       .  S
Co648       N666   2.090       .  S
Co648       N656   2.080       .  S
Co648       N688   2.051       .  S
Co648       N664   2.085       .  S
Co648     Cl2828   2.436   1_455  S
N649        C687   1.357       .  A
N649        N656   1.320       .  A
N649      Co2786   2.135   1_455  S
Co650      N2785   2.136       .  S
Co650       N653   2.116       .  S
Co650       N670   2.079       .  S
Co650       N657   2.089       .  S
Co650      Cl692   2.468       .  S
C651        N689   1.361       .  A
C651       C1057   1.462       .  S
N652        N659   1.317       .  A
N652        N682   1.329       .  A
N652       Co685   2.104       .  S
N653        N671   1.322       .  A
N653        N689   1.325       .  A
N654        C683   1.350   1_455  A
N654        N664   1.324       .  A
H655        C680   1.081       .  S
N656        N677   1.326       .  A
N657        N675   1.321       .  A
N657        N662   1.323       .  A
C658        N662   1.346       .  A
C658        C686   1.465       .  S
C658        C833   1.485       .  S
N659       C2810   1.335       .  A
N659      Co2817   2.067       .  S
C660        N688   1.336       .  A
C660        C663   1.449       .  S
C660        H694   1.080       .  S
C663        N684   1.354       .  A
C663        C961   1.464       .  S
N664       N2806   1.318   1_455  A
N665        C691   1.352       .  A
N665        N667   1.315       .  A
N665      Co2817   2.109       .  S
N666        C680   1.344       .  A
N667        N695   1.323       .  A
N667       Co685   2.075       .  S
H668        C691   1.078       .  S
H669        C686   1.081       .  S
N670       N2800   1.318       .  A
N671       Co685   2.046       .  S
N672        N684   1.315       .  A
N672        N688   1.316       .  A
N672       Co681   2.069       .  S
C673        N677   1.350       .  A
C673        C687   1.490       .  S
C673        C766   1.527       .  S
C674       N2795   1.335       .  A
C674       C2829   1.456   1_455  S
C674        H678   1.082       .  S
N675        C686   1.343       .  A
N675       Co685   2.090       .  S
C679        N695   1.352       .  A
C679        C691   1.485       .  S
C679        C753   1.518       .  S
Co681      N2795   2.067       .  S
Co681      N2801   2.110   1_455  S
Co681     Cl2828   2.462   1_455  S
N682        C693   1.356       .  A
C683       C2781   1.459       .  S
C683        C910   1.476       .  S
Co685      Cl692   2.434       .  S
Cl692     Co2784   2.436       .  S
Cl692     Co2817   2.462       .  S
C693       C2810   1.455       .  S
C693        C929   1.481       .  S
C696        N714   1.357       .  A
C696        C733   1.449       .  S
C696        C881   1.479       .  S
N697        N714   1.333       .  A
N697        N719   1.318       .  A
N697      Co1802   2.109       .  S
C698        N723   1.336       .  A
C698        C736   1.461       .  S
C698        H743   1.081       .  S
H699        C740   1.081       .  S
C700        N724   1.350       .  A
C700        C704   1.472       .  S
C700        H729   1.082       .  S
Co701      N1787   2.050       .  S
Co701      N1777   2.121       .  S
Co701       N741   2.130       .  S
Co701       N717   2.064       .  S
Co701     Cl1813   2.452       .  S
N702        C740   1.349       .  A
N702        N709   1.322       .  A
N702       Co703   2.112       .  S
Co703       N706   2.088       .  S
Co703      N1791   2.088       .  S
Co703      N1778   2.108       .  S
Co703      Cl745   2.456       .  S
C704        N742   1.351       .  A
C704        C785   1.501       .  S
N705        N712   1.319       .  A
N705        N735   1.326       .  A
N705       Co738   2.066       .  S
N706        N724   1.320       .  A
N706        N742   1.326       .  A
N707        C736   1.347       .  A
N707        N717   1.323       .  A
H708        C733   1.082       .  S
N709        N730   1.334       .  A
N709      Co1769   2.121       .  S
N710        N728   1.319       .  A
N710        N715   1.331       .  A
N710      Co1771   2.108       .  S
C711        N715   1.357       .  A
C711        C739   1.458       .  S
C711        C894   1.488       .  S
N712        C727   1.327       .  A
N712      Co1802   2.060       .  S
C713        N741   1.354       .  A
C713        C716   1.477       .  S
C713        H747   1.082       .  S
C716        N737   1.346       .  A
C716        C798   1.499       .  S
N717        N723   1.319       .  A
N718        C744   1.342       .  A
N718        N720   1.321       .  A
N718       Co734   2.093       .  S
N719        C733   1.327       .  A
N719      Co1769   2.049       .  S
N720        N748   1.333       .  A
N720      Co1806   2.117   1_545  S
H721        C744   1.080       .  S
H722        C739   1.082   1_565  S
N723      Co1771   2.087       .  S
N724       Co738   2.121       .  S
N725        N737   1.323       .  A
N725        N741   1.321       .  A
N725       Co734   2.076       .  S
C726        N730   1.357       .  A
C726        C740   1.466       .  S
C726        C769   1.509       .  S
C727        C746   1.454       .  S
C727        H731   1.079       .  S
N728        C739   1.334       .  A
N728      Co1806   2.070   1_545  S
C732        N748   1.358       .  A
C732        C744   1.459       .  S
C732        C750   1.498       .  S
Co734      N1765   2.110       .  S
Co734      N1780   2.061   1_545  S
Co734     Cl1813   2.454       .  S
N735        C746   1.347       .  A
C736        C945   1.466       .  S
Co738      N1788   2.118       .  S
Co738      N1796   2.070       .  S
Co738      Cl745   2.451       .  S
Cl745     Co1769   2.452       .  S
Cl745     Co1802   2.454       .  S
C746       C1041   1.463       .  S
C749        H756   1.084       .  S
C749        C750   1.404       .  A
C749        C754   1.419       .  A
C750        C751   1.415       .  A
C751        C758   1.510       .  S
C751        C752   1.408       .  A
C752        H757   1.084       .  S
C752        C753   1.412       .  A
C753        C754   1.426       .  A
C754        C755   1.502       .  S
C755        H759   1.111       .  S
C755        H760   1.109       .  S
C755        H761   1.110       .  S
C758        H762   1.107       .  S
C758        H763   1.110       .  S
C758        H764   1.111       .  S
C765        H772   1.084       .  S
C765        C766   1.414       .  A
C765        C770   1.416       .  A
C766        C767   1.426       .  A
C767        C774   1.503       .  S
C767        C768   1.423       .  A
C768        H773   1.084       .  S
C768        C769   1.406       .  A
C769        C770   1.415       .  A
C770        C771   1.508       .  S
C771        H775   1.111       .  S
C771        H776   1.111       .  S
C771        H777   1.110       .  S
C774        H778   1.109       .  S
C774        H779   1.110       .  S
C774        H780   1.111       .  S
C781        H788   1.082       .  S
C781        C782   1.407       .  A
C781        C786   1.412       .  A
C782        C783   1.423       .  A
C783        C790   1.507       .  S
C783        C784   1.414       .  A
C784        H789   1.084       .  S
C784        C785   1.404       .  A
C785        C786   1.420       .  A
C786        C787   1.508       .  S
C787        H791   1.111       .  S
C787        H792   1.111       .  S
C787        H793   1.109       .  S
C790        H794   1.107       .  S
C790        H795   1.110       .  S
C790        H796   1.111       .  S
C797        H804   1.084       .  S
C797        C798   1.402       .  A
C797        C802   1.413       .  A
C798        C799   1.422       .  A
C799        C806   1.508       .  S
C799        C800   1.412       .  A
C800        H805   1.083       .  S
C800        C801   1.404       .  A
C801        C802   1.424       .  A
C802        C803   1.508       .  S
C803        H807   1.111       .  S
C803        H808   1.110       .  S
C803        H809   1.108       .  S
C806        H810   1.109       .  S
C806        H811   1.111       .  S
C806        H812   1.111       .  S
C813        H820   1.082       .  S
C813        C814   1.402       .  A
C813        C818   1.405       .  A
C814        C815   1.412       .  A
C815        C822   1.508       .  S
C815        C816   1.402       .  A
C816        H821   1.084       .  S
C816        C817   1.400       .  A
C817        C818   1.414       .  A
C818        C819   1.507       .  S
C819        H823   1.111       .  S
C819        H824   1.111       .  S
C819        H825   1.109       .  S
C822        H826   1.110       .  S
C822        H827   1.108       .  S
C822        H828   1.111       .  S
C829        H836   1.084       .  S
C829        C830   1.400       .  A
C829        C834   1.407       .  A
C830        C831   1.413       .  A
C831        C838   1.508       .  S
C831        C832   1.403       .  A
C832        H837   1.083       .  S
C832        C833   1.405       .  A
C833        C834   1.417       .  A
C834        C835   1.507       .  S
C835        H839   1.111       .  S
C835        H840   1.109       .  S
C835        H841   1.110       .  S
C838        H842   1.108       .  S
C838        H843   1.110       .  S
C838        H844   1.111       .  S
C845        C850   1.405       .  A
C847        C848   1.415       .  A
C848        H853   1.083       .  S
C848        C849   1.410       .  A
C849        C850   1.424       .  A
C850        C851   1.509       .  S
C851        H855   1.111       .  S
C851        H856   1.109       .  S
C851        H857   1.109   1_554  S
C854        H858   1.110       .  S
C861        H868   1.084       .  S
C861        C862   1.400       .  A
C861        C866   1.408       .  A
C862        C863   1.422       .  A
C863        C870   1.507       .  S
C863        C864   1.410       .  A
C864        H869   1.084       .  S
C864        C865   1.403       .  A
C865        C866   1.414       .  A
C866        C867   1.487       .  S
C867        H871   1.111       .  S
C867        H872   1.109       .  S
C867        H873   1.105       .  S
C870        H875   1.109       .  S
C870        H876   1.111       .  S
C877        H884   1.085       .  S
C877        C878   1.408   1_565  A
C877        C882   1.392       .  A
C878        C879   1.412       .  A
C879        C886   1.503       .  S
C879        C880   1.419       .  A
C880       H1953   1.083       .  S
C880       C1949   1.411       .  A
C881       C1948   1.411       .  A
C881       C1950   1.411       .  A
C882        C883   1.515       .  S
C882       C1949   1.411   1_565  A
C883        H887   1.107       .  S
C883       H1956   1.108       .  S
C883        H889   1.111       .  S
H885       C1948   1.083       .  S
C886        H890   1.110       .  S
C886        H891   1.111       .  S
C886        H892   1.111       .  S
H888       C1951   1.108       .  S
C893        H900   1.084       .  S
C893       C1962   1.403       .  A
C893        C898   1.401       .  A
C894       C1961   1.403   1_545  A
C894       C1963   1.411       .  A
C895       C1970   1.505       .  S
C895       C1962   1.411       .  A
C895        C896   1.417       .  A
C896        H901   1.083       .  S
C896        C897   1.410       .  A
C897        C898   1.416       .  A
C898        C899   1.510       .  S
C899        H903   1.111       .  S
C899        H904   1.108       .  S
C899        H905   1.109       .  S
C902       C1963   1.505       .  S
C902        H906   1.110       .  S
C902       H1975   1.110       .  S
C902       H1976   1.111       .  S
H907       C1970   1.110       .  S
H908       C1970   1.111       .  S
C909        H916   1.084       .  S
C909        C910   1.400   1_455  A
C909        C914   1.401       .  A
C910       C3047   1.416       .  A
C911        C918   1.506       .  S
C911       C3046   1.416       .  A
C911        C912   1.402       .  A
C912        H917   1.085       .  S
C912       C3049   1.401       .  A
C913       C3048   1.401       .  A
C913        C914   1.421   1_655  A
C914        C915   1.510       .  S
C915        H919   1.111       .  S
C915        H920   1.110       .  S
C915        H921   1.110       .  S
C918        H922   1.109       .  S
C918        H923   1.107       .  S
C918        H924   1.111       .  S
C925        H932   1.084       .  S
C925        C926   1.407       .  A
C925        C930   1.411       .  A
C926        C927   1.416       .  A
C927       C3070   1.508       .  S
C927        C928   1.402       .  A
C928       H3069   1.084       .  S
C928        C929   1.402       .  A
C929        C930   1.411       .  A
C930        C931   1.506       .  S
C931        H935   1.111       .  S
C931        H936   1.110       .  S
C931        H937   1.111       .  S
H933       C3064   1.084       .  S
C934       C3063   1.508       .  S
C934       H3074   1.111   1_455  S
C934        H939   1.107       .  S
C934        H940   1.111       .  S
H938       C3070   1.111       .  S
C941        H948   1.077       .  S
C941        C942   1.413       .  A
C941        C946   1.395       .  A
C942        C943   1.430       .  A
C943        C950   1.509       .  S
C943        C944   1.403       .  A
C944        H949   1.084       .  S
C944        C945   1.400       .  A
C945        C946   1.409       .  A
C946        C947   1.508       .  S
C947        H951   1.111       .  S
C947        H952   1.110       .  S
C947        H953   1.110       .  S
C950        H954   1.103       .  S
C950        H955   1.110       .  S
C950        H956   1.111       .  S
C957        H964   1.079       .  S
C957        C958   1.413       .  A
C957        C962   1.397       .  A
C958        C959   1.442       .  A
C959        C966   1.519       .  S
C959        C960   1.389       .  A
C960        H965   1.087       .  S
C960        C961   1.389       .  A
C961        C962   1.411       .  A
C962        C963   1.506       .  S
C963        H967   1.111       .  S
C963        H968   1.108       .  S
C963        H969   1.110       .  S
C966        H970   1.097       .  S
C966        H971   1.109       .  S
C966        H972   1.112       .  S
C973        H980   1.084       .  S
C973        C978   1.402       .  A
C974        C975   1.394   1_556  A
C975        C982   1.503       .  S
C976        H981   1.075       .  S
C976        C977   1.426       .  A
C977        C978   1.449       .  A
C978        C979   1.520       .  S
C979        H983   1.111       .  S
C979        H984   1.107       .  S
C979        H985   1.103       .  S
C982        H986   1.109       .  S
C982        H987   1.110   1_554  S
C982        H988   1.111       .  S
C989        H996   1.067       .  S
C989        C990   1.410       .  A
C989        C994   1.373       .  A
C990        C991   1.434       .  A
C991        C998   1.503       .  S
C991        C992   1.396       .  A
C992        H997   1.086       .  S
C992        C993   1.390       .  A
C993        C994   1.407       .  A
C994        C995   1.517       .  S
C995        H999   1.111       .  S
C995       H3136   1.108       .  S
C995       H1001   1.108       .  S
C998       H1002   1.109       .  S
C998       H1003   1.093       .  S
C998       H1004   1.111       .  S
H1000      C3131   1.108       .  S
C1005      H1012   1.069       .  S
C1005      C1006   1.419       .  A
C1005      C1010   1.389       .  A
C1006      C1007   1.433       .  A
C1007      C1014   1.507       .  S
C1007      C1008   1.395       .  A
C1008      H1013   1.085       .  S
C1008      C1009   1.393       .  A
C1009      C1010   1.401       .  A
C1010      C1011   1.507       .  S
C1011      H1015   1.111       .  S
C1011      H1016   1.109       .  S
C1011      H1017   1.110       .  S
C1014      H1018   1.104       .  S
C1014      H1019   1.111       .  S
C1014      H1020   1.097       .  S
C1021      H1028   1.076       .  S
C1021      C1022   1.414       .  A
C1021      C1026   1.389       .  A
C1022      C1023   1.449       .  A
C1023      C1030   1.513       .  S
C1023      C1024   1.420       .  A
C1024      H1029   1.083       .  S
C1024      C1025   1.402       .  A
C1025      C1026   1.401       .  A
C1026      C1027   1.505       .  S
C1027      H1031   1.110       .  S
C1027      H1032   1.111       .  S
C1027      H1033   1.109       .  S
C1030      H1034   1.109       .  S
C1030      H1035   1.102       .  S
C1030      H1036   1.111       .  S
C1037      H1044   1.065       .  S
C1037      C1038   1.424       .  A
C1037      C1042   1.388       .  A
C1038      C1039   1.455       .  A
C1039      C1046   1.508       .  S
C1039      C1040   1.405       .  A
C1040      H1045   1.086       .  S
C1040      C1041   1.386       .  A
C1041      C1042   1.389       .  A
C1042      C1043   1.511       .  S
C1043      H1047   1.111       .  S
C1043      H1048   1.110       .  S
C1043      H1049   1.107       .  S
C1046      H1050   1.083       .  S
C1046      H1051   1.111       .  S
C1046      H1052   1.111       .  S
C1053      H1060   1.060       .  S
C1053      C1054   1.422       .  A
C1053      C1058   1.393       .  A
C1054      C1055   1.422       .  A
C1055      C1062   1.503       .  S
C1055      C1056   1.406       .  A
C1056      H1061   1.084       .  S
C1056      C1057   1.408       .  A
C1057      C1058   1.394       .  A
C1058      C1059   1.507       .  S
C1059      H1063   1.111       .  S
C1059      H1064   1.110       .  S
C1059      H1065   1.110       .  S
C1062      H1066   1.111       .  S
C1062      H1067   1.107       .  S
C1062      H1068   1.110       .  S
C1069      C1540   1.555       .  S
C1069      C1556   1.577       .  S
C1069      C1572   1.589       .  S
C1069      C1588   1.572       .  S
C1070      C1476   1.559       .  S
C1070      C1492   1.552       .  S
C1070      C1511   1.555       .  S
C1070      C1524   1.548       .  S
C1071      N1089   1.372       .  A
C1071      C1108   1.440       .  S
C1071      C1399   1.492       .  S
N1072      N1089   1.337       .  A
N1072      N1094   1.313       .  A
C1073      N1098   1.332       .  A
C1073      C1111   1.459       .  S
C1073      H3254   1.081       .  S
H1074      C1115   1.081       .  S
C1075      N1099   1.355   1_565  A
C1075      C1079   1.480       .  S
C1075      H1104   1.081   1_565  S
Co1076     N1094   2.015       .  S
Co1076     N1618   2.066       .  S
Co1076    Cl2188   2.436   1_455  S
N1077      C1115   1.343       .  A
N1077      N3220   1.319       .  A
N1077     Co1078   2.090   1_565  S
Co1078     N1081   2.050   1_545  S
Co1078     N2166   2.060       .  S
C1079      N1651   1.342       .  A
C1079      C1965   1.488       .  S
N1080      N1087   1.321       .  A
N1080      N1110   1.314       .  A
N1081      N1633   1.318   1_564  A
N1081      N1117   1.316       .  A
N1082      C1111   1.341       .  A
N1082      N1092   1.311       .  A
H1083      C1108   1.082       .  S
N1084      N3213   1.319   1_455  A
N1084      N1105   1.319       .  A
N1084     Co1610   2.066   1_554  S
N1085      N1637   1.318   1_554  A
N1085      N1090   1.335       .  A
C1086      N1090   1.366       .  A
C1086      C1648   1.442   1_554  S
C1086      C1380   1.483       .  S
N1087      C1102   1.333       .  A
N1087     Co2177   2.051       .  S
C1088      N1116   1.356       .  A
C1088      C1091   1.487       .  S
C1088      H1122   1.081       .  S
C1091      N1112   1.341       .  A
C1091      C1412   1.492       .  S
N1092      N1098   1.318       .  A
N1093      C1119   1.342       .  A
N1093      N1095   1.317       .  A
N1093     Co3245   2.090       .  S
N1094      C1108   1.325       .  A
N1095      N1123   1.326       .  A
N1095     Co1113   2.077       .  S
H1096      C1119   1.080       .  S
H1097      C1114   1.082       .  S
N1098     Co2146   2.060   1_455  S
N1099      N1615   1.318   1_545  A
N1100      N1112   1.313       .  A
N1100      N1116   1.316       .  A
N1100     Co1109   2.041       .  S
C1101      N1105   1.344   1_655  A
C1101      C3251   1.465       .  S
C1101      C1447   1.478       .  S
C1102      C1121   1.456       .  S
C1102      H1106   1.080       .  S
N1103      C1114   1.326       .  A
N1103      N1619   1.318       .  A
N1103     Co1113   2.039       .  S
C1107      N1123   1.349       .  A
C1107      C1119   1.466       .  S
C1107      C1460   1.484       .  S
Co1109     N2155   2.051   1_455  S
Co1109     N3229   2.090       .  S
Co1109    Cl3256   2.445   1_455  S
N1110      C1121   1.350       .  A
C1111      C1527   1.432       .  S
Co1113    Cl1120   2.439       .  S
C1114      C1620   1.442       .  S
C1115      C3237   1.465       .  S
N1117      C1613   1.342       .  A
H1118      C3209   1.081       .  S
Cl1120    Co2144   2.437       .  S
Cl1120    Co3245   2.445       .  S
C1121      C1543   1.458       .  S
C1124      N1142   1.355       .  A
C1124      C1161   1.461       .  S
C1124      C1508   1.476       .  S
N1125      N1142   1.323       .  A
N1125      N1147   1.316       .  A
N1125     Co1696   2.065       .  S
C1126      N1151   1.347       .  A
C1126      C1164   1.466       .  S
C1126      H1171   1.081       .  S
H1127      C1168   1.081       .  S
C1128      N1152   1.355       .  A
C1128      C1132   1.481       .  S
C1128      H1157   1.081       .  S
Co1129     N1147   2.060       .  S
Co1129     N1137   2.106       .  S
Co1129     N1703   2.110       .  S
Co1129     N1145   2.065       .  S
Co1129    Cl1173   2.453       .  S
N1130      C1168   1.331       .  A
N1130      N1137   1.315       .  A
N1130     Co1131   2.047       .  S
Co1131     N1134   2.071       .  S
Co1131     N1151   2.101       .  S
Co1131     N1138   2.036       .  S
Co1131    Cl1173   2.422       .  S
C1132      N1170   1.342       .  A
C1132      C1335   1.502       .  S
N1133      N1140   1.319       .  A
N1133      N1163   1.323       .  A
N1133     Co1166   2.088       .  S
N1134      N1152   1.320       .  A
N1134      N1170   1.322       .  A
N1135      C1164   1.348       .  A
N1135      N1145   1.324       .  A
H1136      C1161   1.080       .  S
N1137      N1158   1.329       .  A
N1138      N1156   1.316       .  A
N1138      N1143   1.303       .  A
C1139      N1143   1.342       .  A
C1139      C1167   1.478       .  S
C1139      C1559   1.486       .  S
N1140      C1155   1.349       .  A
N1140     Co1696   2.097       .  S
C1141      N1169   1.350       .  A
C1141      C1144   1.474       .  S
C1141      H1175   1.081       .  S
C1144      N1165   1.349       .  A
C1144      C1316   1.508       .  S
N1145      N1151   1.318       .  A
N1146      C1172   1.331       .  A
N1146      N1148   1.320       .  A
N1146     Co1162   2.057       .  S
N1147      C1161   1.329       .  A
N1148      N1176   1.330       .  A
N1148     Co1700   2.115   1_554  S
H1149      C1172   1.081       .  S
H1150      C1167   1.081       .  S
N1152     Co1166   2.126       .  S
N1153      N1165   1.327       .  A
N1153      N1169   1.320       .  A
N1153     Co1162   2.091       .  S
C1154      N1158   1.357       .  A
C1154      C1168   1.448       .  S
C1154      C1348   1.471       .  S
C1155      C1174   1.469       .  S
C1155      H1159   1.082       .  S
N1156      C1167   1.358       .  A
N1156     Co1166   2.105       .  S
C1160      N1176   1.359       .  A
C1160      C1172   1.446       .  S
C1160      C1364   1.472       .  S
Co1162     N1659   2.065       .  S
Co1162     N1674   2.097       .  S
Co1162    Cl1707   2.439   1_554  S
N1163      C1174   1.351       .  A
C1164      C1396   1.495       .  S
Co1166     N1682   2.115       .  S
Co1166    Cl1173   2.464       .  S
N1169     Co1663   2.110   1_554  S
Cl1173    Co1696   2.439       .  S
C1174      C1383   1.503       .  S
C1177      N1195   1.343       .  A
C1177      C1214   1.463       .  S
C1177      C1351   1.471       .  S
N1178      N1195   1.322       .  A
N1178      N1200   1.322       .  A
N1178     Co1215   2.080       .  S
C1179      N1204   1.340       .  A
C1179      C3353   1.459       .  S
C1179      H1224   1.081       .  S
H1180      C1221   1.078       .  S
C1181      N1205   1.329       .  A
C1181      C1185   1.439       .  S
C1181      H1210   1.082       .  S
Co1182     N1200   2.091       .  S
Co1182     N1190   2.080       .  S
Co1182     N1222   2.051       .  S
Co1182     N1198   2.085       .  S
Co1182    Cl3362   2.435   1_455  S
N1183      C1221   1.357       .  A
N1183      N1190   1.320       .  A
N1183     Co3320   2.135   1_455  S
Co1184     N3319   2.135       .  S
Co1184     N1187   2.114       .  S
Co1184     N1204   2.078       .  S
Co1184     N1191   2.089       .  S
Co1184    Cl1226   2.468       .  S
C1185      N1223   1.361       .  A
C1185      C1591   1.461       .  S
N1186      N1193   1.317       .  A
N1186      N1216   1.329       .  A
N1186     Co1219   2.103       .  S
N1187      N1205   1.322       .  A
N1187      N1223   1.325       .  A
N1188      C1217   1.350   1_455  A
N1188      N1198   1.324       .  A
H1189      C1214   1.081       .  S
N1190      N1211   1.326       .  A
N1191      N1209   1.321       .  A
N1191      N1196   1.323       .  A
C1192      N1196   1.346       .  A
C1192      C1220   1.465       .  S
C1192      C1367   1.485       .  S
N1193      C3344   1.335       .  A
N1193     Co3351   2.067       .  S
C1194      N1222   1.336       .  A
C1194      C1197   1.449       .  S
C1194      H1228   1.080       .  S
C1197      N1218   1.354       .  A
C1197      C1495   1.464       .  S
N1198      N3340   1.318   1_455  A
N1199      C1225   1.352       .  A
N1199      N1201   1.315       .  A
N1199     Co3351   2.109       .  S
N1200      C1214   1.344       .  A
N1201      N1229   1.323       .  A
N1201     Co1219   2.074       .  S
H1202      C1225   1.078       .  S
H1203      C1220   1.081       .  S
N1204      N3334   1.318       .  A
N1205     Co1219   2.045       .  S
N1206      N1218   1.315       .  A
N1206      N1222   1.316       .  A
N1206     Co1215   2.069       .  S
C1207      N1211   1.350       .  A
C1207      C1221   1.490       .  S
C1207      C1300   1.527       .  S
C1208      N3329   1.335       .  A
C1208      C3363   1.456   1_455  S
C1208      H1212   1.082       .  S
N1209      C1220   1.344       .  A
N1209     Co1219   2.090       .  S
C1213      N1229   1.351       .  A
C1213      C1225   1.486       .  S
C1213      C1287   1.518       .  S
Co1215     N3329   2.067       .  S
Co1215     N3335   2.109   1_455  S
Co1215    Cl3362   2.462   1_455  S
N1216      C1227   1.356       .  A
C1217      C3315   1.459       .  S
C1217      C1444   1.476       .  S
Co1219    Cl1226   2.432       .  S
Cl1226    Co3318   2.436       .  S
Cl1226    Co3351   2.462       .  S
C1227      C3344   1.456       .  S
C1227      C1463   1.481       .  S
C1230      N1248   1.357       .  A
C1230      C1267   1.449       .  S
C1230      C1415   1.480       .  S
N1231      N1248   1.334       .  A
N1231      N1253   1.318       .  A
C1232      N1257   1.336       .  A
C1232      C1270   1.461       .  S
C1232      H1277   1.081       .  S
H1233      C1274   1.081       .  S
C1234      N1258   1.350       .  A
C1234      C1238   1.472       .  S
C1234      H1263   1.082       .  S
Co1235     N1275   2.130       .  S
Co1235     N1251   2.064       .  S
N1236      C1274   1.349       .  A
N1236      N1243   1.322   1_565  A
N1236     Co1237   2.112   1_565  S
Co1237     N1240   2.088   1_545  S
Co1237    Cl1279   2.456       .  S
C1238      N1276   1.351       .  A
C1238      C1319   1.501       .  S
N1239      N1246   1.319       .  A
N1239      N1269   1.326       .  A
N1239     Co1272   2.064       .  S
N1240      N1258   1.320       .  A
N1240      N1276   1.326       .  A
N1241      C1270   1.347       .  A
N1241      N1251   1.323       .  A
H1242      C1267   1.082       .  S
N1243      N1264   1.334   1_545  A
N1244      N1262   1.319       .  A
N1244      N1249   1.331       .  A
C1245      N1249   1.357       .  A
C1245      C1273   1.458       .  S
C1245      C1428   1.488       .  S
N1246      C1261   1.327       .  A
C1247      N1275   1.354       .  A
C1247      C1250   1.477       .  S
C1247      H1281   1.082       .  S
C1250      N1271   1.346       .  A
C1250      C1332   1.499       .  S
N1251      N1257   1.319       .  A
N1252      C1278   1.342       .  A
N1252      N1254   1.321       .  A
N1252     Co1268   2.093       .  S
N1253      C1267   1.327       .  A
N1254      N1282   1.333       .  A
H1255      C1278   1.080       .  S
H1256      C1273   1.082       .  S
N1258     Co1272   2.121       .  S
N1259      N1271   1.323       .  A
N1259      N1275   1.321       .  A
N1259     Co1268   2.077       .  S
C1260      N1264   1.357       .  A
C1260      C1274   1.466       .  S
C1260      C1303   1.509       .  S
C1261      C1280   1.455       .  S
C1261      H1265   1.080       .  S
N1262      C1273   1.334       .  A
C1266      N1282   1.358       .  A
C1266      C1278   1.459       .  S
C1266      C1284   1.498       .  S
N1269      C1280   1.346       .  A
C1270      C1479   1.466       .  S
Co1272    Cl1279   2.450   1_565  S
C1280      C1575   1.462       .  S
C1283      H1290   1.084       .  S
C1283      C1284   1.404       .  A
C1283      C1288   1.419       .  A
C1284      C1285   1.415       .  A
C1285      C1292   1.510       .  S
C1285      C1286   1.408       .  A
C1286      H1291   1.084       .  S
C1286      C1287   1.412       .  A
C1287      C1288   1.426       .  A
C1288      C1289   1.502       .  S
C1289      H1293   1.111       .  S
C1289      H1294   1.109       .  S
C1289      H1295   1.110       .  S
C1292      H1296   1.108       .  S
C1292      H1297   1.110       .  S
C1292      H1298   1.111       .  S
C1299      H1306   1.084       .  S
C1299      C1300   1.414       .  A
C1299      C1304   1.416       .  A
C1300      C1301   1.426       .  A
C1301      C1308   1.503       .  S
C1301      C1302   1.423       .  A
C1302      H1307   1.084       .  S
C1302      C1303   1.406       .  A
C1303      C1304   1.415       .  A
C1304      C1305   1.508       .  S
C1305      H1309   1.111       .  S
C1305      H1310   1.111       .  S
C1305      H1311   1.110       .  S
C1308      H1312   1.109       .  S
C1308      H1313   1.110       .  S
C1308      H1314   1.111       .  S
C1315      H1322   1.082       .  S
C1315      C1316   1.407       .  A
C1315      C1320   1.412       .  A
C1316      C1317   1.423       .  A
C1317      C1324   1.507       .  S
C1317      C1318   1.414       .  A
C1318      H1323   1.084       .  S
C1318      C1319   1.404       .  A
C1319      C1320   1.420       .  A
C1320      C1321   1.508       .  S
C1321      H1325   1.111       .  S
C1321      H1326   1.111       .  S
C1321      H1327   1.109       .  S
C1324      H1328   1.107       .  S
C1324      H1329   1.110       .  S
C1324      H1330   1.111       .  S
C1331      H1338   1.084       .  S
C1331      C1332   1.402       .  A
C1331      C1336   1.413       .  A
C1332      C1333   1.422       .  A
C1333      C1340   1.508       .  S
C1333      C1334   1.412       .  A
C1334      H1339   1.083       .  S
C1334      C1335   1.404       .  A
C1335      C1336   1.424       .  A
C1336      C1337   1.508       .  S
C1337      H1341   1.111       .  S
C1337      H1342   1.110       .  S
C1337      H1343   1.108       .  S
C1340      H1344   1.109       .  S
C1340      H1345   1.111       .  S
C1340      H1346   1.111       .  S
C1347      H1354   1.082       .  S
C1347      C1348   1.402       .  A
C1347      C1352   1.405       .  A
C1348      C1349   1.412       .  A
C1349      C1356   1.508       .  S
C1349      C1350   1.402       .  A
C1350      H1355   1.084       .  S
C1350      C1351   1.400       .  A
C1351      C1352   1.414       .  A
C1352      C1353   1.507       .  S
C1353      H1357   1.111       .  S
C1353      H1358   1.111       .  S
C1353      H1359   1.109       .  S
C1356      H1360   1.110       .  S
C1356      H1361   1.108       .  S
C1356      H1362   1.111       .  S
C1363      H1370   1.084       .  S
C1363      C1364   1.400       .  A
C1363      C1368   1.407       .  A
C1364      C1365   1.413       .  A
C1365      C1372   1.508       .  S
C1365      C1366   1.403       .  A
C1366      H1371   1.083       .  S
C1366      C1367   1.405       .  A
C1367      C1368   1.417       .  A
C1368      C1369   1.507       .  S
C1369      H1373   1.111       .  S
C1369      H1374   1.109       .  S
C1369      H1375   1.110       .  S
C1372      H1376   1.108       .  S
C1372      H1377   1.110       .  S
C1372      H1378   1.111       .  S
C1379      H1920   1.085       .  S
C1379      C1914   1.400       .  A
C1379      C1384   1.406       .  A
C1380      C1913   1.400       .  A
C1380      C1915   1.411       .  A
C1381      C1922   1.503       .  S
C1381      C1914   1.411       .  A
C1381      C1382   1.415       .  A
C1382      H1387   1.083       .  S
C1382      C1383   1.410       .  A
C1383      C1384   1.424       .  A
C1384      C1385   1.509       .  S
C1385      H1389   1.111       .  S
C1385      H1390   1.109       .  S
C1385      H1391   1.109       .  S
H1386      C1913   1.085       .  S
C1388      C1915   1.503       .  S
C1388      H1392   1.110       .  S
C1388      H1927   1.110       .  S
C1388      H1928   1.104       .  S
H1393      C1922   1.110       .  S
H1394      C1922   1.104       .  S
C1395      H1402   1.084       .  S
C1395      C1396   1.400       .  A
C1395      C1400   1.408       .  A
C1396      C1397   1.422       .  A
C1397      C1404   1.507       .  S
C1397      C1398   1.410       .  A
C1398      H1403   1.084       .  S
C1398      C1399   1.404       .  A
C1399      C1400   1.413       .  A
C1400      C1401   1.488       .  S
C1401      H1405   1.111       .  S
C1401      H1406   1.109       .  S
C1401      H1407   1.105       .  S
C1404      H1942   1.109       .  S
C1404      H1409   1.109       .  S
C1404      H1410   1.111       .  S
H1408      C1938   1.109       .  S
C1411      H1418   1.085       .  S
C1411      C1412   1.408       .  A
C1411      C1416   1.392       .  A
C1412      C1413   1.412       .  A
C1413      C1420   1.503       .  S
C1413      C1414   1.419       .  A
C1416      C1417   1.515       .  S
C1417      H1421   1.107       .  S
C1417      H1423   1.111       .  S
C1420      H1424   1.110       .  S
C1420      H1425   1.111       .  S
C1420      H1426   1.111       .  S
C1427      H1434   1.084       .  S
C1427      C1432   1.401       .  A
C1429      C1430   1.417       .  A
C1430      H1435   1.083       .  S
C1430      C1431   1.410   1_545  A
C1431      C1613   1.488       .  S
C1431      C1432   1.416       .  A
C1432      C1433   1.510       .  S
C1433      H1437   1.111       .  S
C1433      H1438   1.108       .  S
C1433      H1439   1.109       .  S
C1436      H1440   1.110       .  S
C1443      H1450   1.084       .  S
C1443      C1444   1.400   1_455  A
C1443      C1448   1.401       .  A
C1444      C3581   1.416       .  A
C1445      C1452   1.506       .  S
C1445      C3580   1.416       .  A
C1445      C1446   1.402       .  A
C1446      H1451   1.085       .  S
C1446      C3583   1.401       .  A
C1447      C3582   1.401       .  A
C1447      C1448   1.421   1_655  A
C1448      C1449   1.510       .  S
C1449      H1453   1.111       .  S
C1449      H1454   1.110       .  S
C1449      H1455   1.110       .  S
C1452      H1456   1.109       .  S
C1452      H1457   1.107       .  S
C1452      H1458   1.111       .  S
C1459      H1466   1.084       .  S
C1459      C1460   1.407       .  A
C1459      C1464   1.411       .  A
C1460      C1461   1.416       .  A
C1461      C3604   1.508       .  S
C1461      C1462   1.402       .  A
C1462      H3603   1.084       .  S
C1462      C1463   1.402       .  A
C1463      C1464   1.411       .  A
C1464      C1465   1.506       .  S
C1465      H1469   1.111       .  S
C1465      H1470   1.110       .  S
C1465      H1471   1.111       .  S
H1467      C3598   1.084       .  S
C1468      C3597   1.508       .  S
C1468      H3608   1.111   1_455  S
C1468      H1473   1.107       .  S
C1468      H1474   1.111       .  S
H1472      C3604   1.111       .  S
C1475      H1482   1.077       .  S
C1475      C1476   1.413       .  A
C1475      C1480   1.395       .  A
C1476      C1477   1.431       .  A
C1477      C1484   1.509       .  S
C1477      C1478   1.403       .  A
C1478      H1483   1.084       .  S
C1478      C1479   1.399       .  A
C1479      C1480   1.409       .  A
C1480      C1481   1.508       .  S
C1481      H1485   1.111       .  S
C1481      H1486   1.110       .  S
C1481      H1487   1.110       .  S
C1484      H1488   1.103       .  S
C1484      H1489   1.110       .  S
C1484      H1490   1.111       .  S
C1491      H1498   1.079       .  S
C1491      C1492   1.413       .  A
C1491      C1496   1.397       .  A
C1492      C1493   1.442       .  A
C1493      C1500   1.520       .  S
C1493      C1494   1.389       .  A
C1494      H1499   1.087       .  S
C1494      C1495   1.389       .  A
C1495      C1496   1.411       .  A
C1496      C1497   1.506       .  S
C1497      H1501   1.111       .  S
C1497      H1502   1.108       .  S
C1497      H1503   1.110       .  S
C1500      H1504   1.097       .  S
C1500      H1505   1.109       .  S
C1500      H1506   1.112       .  S
C1507      H1514   1.084       .  S
C1507      C2042   1.391       .  A
C1507      C1512   1.402   1_556  A
C1508      C2041   1.391       .  A
C1508      C1509   1.394       .  A
C1509      C1516   1.503       .  S
C1509      C2044   1.397       .  A
C1510      H1515   1.075       .  S
C1510      C2043   1.397       .  A
C1510      C1511   1.426       .  A
C1511      C1512   1.449       .  A
C1512      C1513   1.520       .  S
C1513      H1517   1.111   1_554  S
C1513      H1518   1.107       .  S
C1513      H1519   1.103       .  S
C1516      H1520   1.109       .  S
C1516      H1521   1.110       .  S
C1516      H1522   1.111       .  S
C1523      H1530   1.067       .  S
C1523      C1524   1.410       .  A
C1523      C1528   1.373       .  A
C1524      C1525   1.434       .  A
C1525      C1532   1.503       .  S
C1525      C1526   1.396       .  A
C1526      H1531   1.086       .  S
C1526      C1527   1.390       .  A
C1527      C1528   1.407       .  A
C1528      C1529   1.517       .  S
C1529      H1533   1.111       .  S
C1529      H3670   1.108       .  S
C1529      H1535   1.108       .  S
C1532      H1536   1.109       .  S
C1532      H1537   1.093       .  S
C1532      H1538   1.111       .  S
H1534      C3665   1.108       .  S
C1539      H1546   1.069       .  S
C1539      C1540   1.419       .  A
C1539      C1544   1.389       .  A
C1540      C1541   1.433       .  A
C1541      C1548   1.507       .  S
C1541      C1542   1.395       .  A
C1542      H1547   1.085       .  S
C1542      C1543   1.393       .  A
C1543      C1544   1.401       .  A
C1544      C1545   1.508       .  S
C1545      H1549   1.111       .  S
C1545      H1550   1.109       .  S
C1545      H1551   1.110       .  S
C1548      H1552   1.104       .  S
C1548      H1553   1.111       .  S
C1548      H1554   1.097       .  S
C1555      H1562   1.077       .  S
C1555      C1556   1.412       .  A
C1555      C1560   1.387       .  A
C1556      C1557   1.450       .  A
C1557      C1564   1.513       .  S
C1557      C1558   1.420       .  A
C1558      H1563   1.083       .  S
C1558      C1559   1.402       .  A
C1559      C1560   1.400       .  A
C1560      C1561   1.505       .  S
C1561      H1565   1.110       .  S
C1561      H1566   1.111       .  S
C1561      H1567   1.109       .  S
C1564      H1568   1.109       .  S
C1564      H1569   1.102       .  S
C1564      H1570   1.111       .  S
C1571      H1578   1.065       .  S
C1571      C1572   1.425       .  A
C1571      C1576   1.388       .  A
C1572      C1573   1.455       .  A
C1573      C1580   1.508       .  S
C1573      C1574   1.405       .  A
C1574      H1579   1.085       .  S
C1574      C1575   1.386       .  A
C1575      C1576   1.389       .  A
C1576      C1577   1.511       .  S
C1577      H1581   1.111       .  S
C1577      H1582   1.110       .  S
C1577      H1583   1.107       .  S
C1580      H1584   1.083       .  S
C1580      H1585   1.111       .  S
C1580      H1586   1.111       .  S
C1587      H1594   1.060       .  S
C1587      C1588   1.422       .  A
C1587      C1592   1.393       .  A
C1588      C1589   1.421       .  A
C1589      C1596   1.504       .  S
C1589      C1590   1.405       .  A
C1590      H1595   1.084       .  S
C1590      C1591   1.408       .  A
C1591      C1592   1.394       .  A
C1592      C1593   1.507       .  S
C1593      H1597   1.111       .  S
C1593      H1598   1.110       .  S
C1593      H1599   1.110       .  S
C1596      H1600   1.110       .  S
C1596      H1601   1.106       .  S
C1596      H1602   1.111       .  S
C1603      C2074   1.555       .  S
C1603      C2090   1.577       .  S
C1603      C2106   1.589       .  S
C1603      C2122   1.572       .  S
C1604      C2010   1.559       .  S
C1604      C2026   1.552       .  S
C1604      C2045   1.555       .  S
C1604      C2058   1.548       .  S
C1605      N1623   1.372       .  A
C1605      C1642   1.440       .  S
C1605      C1933   1.492       .  S
N1606      N1623   1.337       .  A
N1606      N1628   1.313       .  A
C1607      N1632   1.332       .  A
C1607      C1645   1.459       .  S
C1607      H3788   1.081       .  S
H1608      C1649   1.081       .  S
C1609      N1633   1.355   1_565  A
C1609      C1613   1.480   1_556  S
C1609      H1638   1.081   1_565  S
Co1610     N1628   2.015       .  S
Co1610    Cl2722   2.436   1_455  S
N1611      C1649   1.343       .  A
N1611      N3754   1.319       .  A
N1611     Co1612   2.090   1_565  S
Co1612     N1615   2.050   1_545  S
Co1612     N2700   2.059       .  S
N1614      N1621   1.321       .  A
N1614      N1644   1.314       .  A
N1615      N1651   1.316       .  A
N1616      C1645   1.341       .  A
N1616      N1626   1.311       .  A
H1617      C1642   1.082       .  S
N1618      N3747   1.319   1_455  A
N1618      N1639   1.319       .  A
N1619      N1624   1.335       .  A
C1620      N1624   1.366       .  A
C1620      C1914   1.483       .  S
N1621      C1636   1.333       .  A
N1621     Co2711   2.051       .  S
C1622      N1650   1.356       .  A
C1622      C1625   1.487       .  S
C1622      H1656   1.081       .  S
C1625      N1646   1.340       .  A
C1625      C1946   1.492       .  S
N1626      N1632   1.319       .  A
N1627      C1653   1.342       .  A
N1627      N1629   1.317       .  A
N1627     Co3779   2.090       .  S
N1628      C1642   1.325       .  A
N1629      N1657   1.326       .  A
N1629     Co1647   2.076       .  S
H1630      C1653   1.080       .  S
H1631      C1648   1.082       .  S
N1632     Co2680   2.060   1_455  S
N1634      N1646   1.313       .  A
N1634      N1650   1.316       .  A
N1634     Co1643   2.041       .  S
C1635      N1639   1.344   1_655  A
C1635      C3785   1.465       .  S
C1635      C1981   1.478       .  S
C1636      C1655   1.456       .  S
C1636      H1640   1.080       .  S
N1637      C1648   1.326       .  A
N1637     Co1647   2.039       .  S
C1641      N1657   1.349       .  A
C1641      C1653   1.465       .  S
C1641      C1994   1.484       .  S
Co1643     N2689   2.052   1_455  S
Co1643     N3763   2.089       .  S
Co1643    Cl3790   2.444   1_455  S
N1644      C1655   1.350       .  A
C1645      C2061   1.432       .  S
Co1647    Cl1654   2.438       .  S
C1649      C3771   1.465       .  S
H1652      C3743   1.081       .  S
Cl1654    Co2678   2.436       .  S
Cl1654    Co3779   2.445       .  S
C1655      C2077   1.458       .  S
C1658      N1676   1.355   1_556  A
C1658      C1695   1.461       .  S
C1658      C2042   1.476       .  S
N1659      N1676   1.323       .  A
N1659      N1681   1.316   1_554  A
C1660      N1685   1.347       .  A
C1660      C1698   1.466       .  S
C1660      H1705   1.081       .  S
H1661      C1702   1.081       .  S
C1662      N1686   1.355       .  A
C1662      C1666   1.481       .  S
C1662      H1691   1.081       .  S
Co1663     N1681   2.060       .  S
Co1663     N1671   2.107       .  S
Co1663     N1679   2.064       .  S
Co1663    Cl1707   2.453       .  S
N1664      C1702   1.331       .  A
N1664      N1671   1.315       .  A
N1664     Co1665   2.047       .  S
Co1665     N1668   2.071       .  S
Co1665     N1685   2.101       .  S
Co1665     N1672   2.036       .  S
Co1665    Cl1707   2.422       .  S
C1666      N1704   1.342       .  A
C1666      C1869   1.502       .  S
N1667      N1674   1.319   1_556  A
N1667      N1697   1.323       .  A
N1667     Co1700   2.088       .  S
N1668      N1686   1.320       .  A
N1668      N1704   1.322       .  A
N1669      C1698   1.348       .  A
N1669      N1679   1.324       .  A
H1670      C1695   1.080       .  S
N1671      N1692   1.329       .  A
N1672      N1690   1.316       .  A
N1672      N1677   1.303       .  A
C1673      N1677   1.342       .  A
C1673      C1701   1.478       .  S
C1673      C2093   1.486       .  S
N1674      C1689   1.349       .  A
C1675      N1703   1.350       .  A
C1675      C1678   1.474       .  S
C1675      H1709   1.081       .  S
C1678      N1699   1.349       .  A
C1678      C1850   1.508       .  S
N1679      N1685   1.318       .  A
N1680      C1706   1.331       .  A
N1680      N1682   1.320       .  A
N1680     Co1696   2.058       .  S
N1681      C1695   1.329       .  A
N1682      N1710   1.330       .  A
H1683      C1706   1.081       .  S
H1684      C1701   1.081       .  S
N1686     Co1700   2.126       .  S
N1687      N1699   1.327       .  A
N1687      N1703   1.320       .  A
N1687     Co1696   2.091       .  S
C1688      N1692   1.357       .  A
C1688      C1702   1.448       .  S
C1688      C1882   1.471       .  S
C1689      C1708   1.469       .  S
C1689      H1693   1.082       .  S
N1690      C1701   1.358       .  A
N1690     Co1700   2.105       .  S
C1694      N1710   1.359       .  A
C1694      C1706   1.446       .  S
C1694      C1898   1.472       .  S
N1697      C1708   1.351   1_556  A
C1698      C1930   1.495       .  S
Co1700    Cl1707   2.463       .  S
C1708      C1917   1.503       .  S
C1711      N1729   1.343       .  A
C1711      C1748   1.463       .  S
C1711      C1885   1.471       .  S
N1712      N1729   1.322       .  A
N1712      N1734   1.322       .  A
N1712     Co1749   2.080       .  S
C1713      N1738   1.340       .  A
C1713      C3887   1.459       .  S
C1713      H1758   1.081       .  S
H1714      C1755   1.078       .  S
C1715      N1739   1.329       .  A
C1715      C1719   1.439       .  S
C1715      H1744   1.082       .  S
Co1716     N1734   2.091       .  S
Co1716     N1724   2.080       .  S
Co1716     N1756   2.051       .  S
Co1716     N1732   2.085       .  S
Co1716    Cl3896   2.436   1_455  S
N1717      C1755   1.357       .  A
N1717      N1724   1.320       .  A
N1717     Co3854   2.135   1_455  S
Co1718     N3853   2.135       .  S
Co1718     N1721   2.114       .  S
Co1718     N1738   2.078       .  S
Co1718     N1725   2.089       .  S
Co1718    Cl1760   2.468       .  S
C1719      N1757   1.361       .  A
C1719      C2125   1.461       .  S
N1720      N1727   1.317       .  A
N1720      N1750   1.329       .  A
N1720     Co1753   2.103       .  S
N1721      N1739   1.322       .  A
N1721      N1757   1.325       .  A
N1722      C1751   1.350   1_455  A
N1722      N1732   1.324       .  A
H1723      C1748   1.081       .  S
N1724      N1745   1.326       .  A
N1725      N1743   1.321       .  A
N1725      N1730   1.323       .  A
C1726      N1730   1.346       .  A
C1726      C1754   1.465       .  S
C1726      C1901   1.485       .  S
N1727      C3878   1.335       .  A
N1727     Co3885   2.067       .  S
C1728      N1756   1.336       .  A
C1728      C1731   1.449       .  S
C1728      H1762   1.080       .  S
C1731      N1752   1.354       .  A
C1731      C2029   1.464       .  S
N1732      N3874   1.318   1_455  A
N1733      C1759   1.352       .  A
N1733      N1735   1.315       .  A
N1733     Co3885   2.110       .  S
N1734      C1748   1.344       .  A
N1735      N1763   1.323       .  A
N1735     Co1753   2.075       .  S
H1736      C1759   1.078       .  S
H1737      C1754   1.081       .  S
N1738      N3868   1.318       .  A
N1739     Co1753   2.045       .  S
N1740      N1752   1.315       .  A
N1740      N1756   1.316       .  A
N1740     Co1749   2.069       .  S
C1741      N1745   1.350       .  A
C1741      C1755   1.490       .  S
C1741      C1834   1.527       .  S
C1742      N3863   1.335       .  A
C1742      C3897   1.456   1_455  S
C1742      H1746   1.082       .  S
N1743      C1754   1.343       .  A
N1743     Co1753   2.090       .  S
C1747      N1763   1.352       .  A
C1747      C1759   1.486       .  S
C1747      C1821   1.518       .  S
Co1749     N3863   2.067       .  S
Co1749     N3869   2.110   1_455  S
Co1749    Cl3896   2.462   1_455  S
N1750      C1761   1.356       .  A
C1751      C3849   1.459       .  S
C1751      C1978   1.476       .  S
Co1753    Cl1760   2.432       .  S
Cl1760    Co3852   2.436       .  S
Cl1760    Co3885   2.462       .  S
C1761      C3878   1.456       .  S
C1761      C1997   1.480       .  S
C1764      N1782   1.357       .  A
C1764      C1801   1.449       .  S
C1764      C1949   1.480       .  S
N1765      N1782   1.334       .  A
N1765      N1787   1.318       .  A
C1766      N1791   1.336       .  A
C1766      C1804   1.461       .  S
C1766      H1811   1.081       .  S
H1767      C1808   1.081       .  S
C1768      N1792   1.350       .  A
C1768      C1772   1.472       .  S
C1768      H1797   1.082       .  S
Co1769     N1809   2.130       .  S
Co1769     N1785   2.063       .  S
N1770      C1808   1.349       .  A
N1770      N1777   1.322   1_565  A
N1770     Co1771   2.112   1_565  S
Co1771     N1774   2.088   1_545  S
Co1771    Cl1813   2.456       .  S
C1772      N1810   1.351       .  A
C1772      C1853   1.501       .  S
N1773      N1780   1.319       .  A
N1773      N1803   1.326       .  A
N1773     Co1806   2.064       .  S
N1774      N1792   1.320       .  A
N1774      N1810   1.326       .  A
N1775      C1804   1.347       .  A
N1775      N1785   1.323       .  A
H1776      C1801   1.082       .  S
N1777      N1798   1.334   1_545  A
N1778      N1796   1.319       .  A
N1778      N1783   1.331       .  A
C1779      N1783   1.357       .  A
C1779      C1807   1.459       .  S
C1779      C1962   1.488       .  S
N1780      C1795   1.327       .  A
C1781      N1809   1.354       .  A
C1781      C1784   1.477       .  S
C1781      H1815   1.082       .  S
C1784      N1805   1.346       .  A
C1784      C1866   1.499       .  S
N1785      N1791   1.319       .  A
N1786      C1812   1.342       .  A
N1786      N1788   1.321       .  A
N1786     Co1802   2.093       .  S
N1787      C1801   1.327       .  A
N1788      N1816   1.333       .  A
H1789      C1812   1.080       .  S
H1790      C1807   1.082       .  S
N1792     Co1806   2.121       .  S
N1793      N1805   1.323       .  A
N1793      N1809   1.321       .  A
N1793     Co1802   2.076       .  S
C1794      N1798   1.357       .  A
C1794      C1808   1.466       .  S
C1794      C1837   1.509       .  S
C1795      C1814   1.455       .  S
C1795      H1799   1.080       .  S
N1796      C1807   1.334       .  A
C1800      N1816   1.358       .  A
C1800      C1812   1.459       .  S
C1800      C1818   1.499       .  S
N1803      C1814   1.346       .  A
C1804      C2013   1.466       .  S
Co1806    Cl1813   2.450   1_565  S
C1814      C2109   1.462       .  S
C1817      H1824   1.084       .  S
C1817      C1818   1.404       .  A
C1817      C1822   1.420       .  A
C1818      C1819   1.415       .  A
C1819      C1826   1.510       .  S
C1819      C1820   1.409       .  A
C1820      H1825   1.084       .  S
C1820      C1821   1.412       .  A
C1821      C1822   1.426       .  A
C1822      C1823   1.502       .  S
C1823      H1827   1.111       .  S
C1823      H1828   1.109       .  S
C1823      H1829   1.110       .  S
C1826      H1830   1.107       .  S
C1826      H1831   1.110       .  S
C1826      H1832   1.111       .  S
C1833      H1840   1.084       .  S
C1833      C1834   1.414       .  A
C1833      C1838   1.416       .  A
C1834      C1835   1.426       .  A
C1835      C1842   1.503       .  S
C1835      C1836   1.423       .  A
C1836      H1841   1.084       .  S
C1836      C1837   1.406       .  A
C1837      C1838   1.415       .  A
C1838      C1839   1.508       .  S
C1839      H1843   1.111       .  S
C1839      H1844   1.111       .  S
C1839      H1845   1.110       .  S
C1842      H1846   1.109       .  S
C1842      H1847   1.110       .  S
C1842      H1848   1.111       .  S
C1849      H1856   1.082       .  S
C1849      C1850   1.407       .  A
C1849      C1854   1.412       .  A
C1850      C1851   1.423       .  A
C1851      C1858   1.507       .  S
C1851      C1852   1.414       .  A
C1852      H1857   1.084       .  S
C1852      C1853   1.404       .  A
C1853      C1854   1.420       .  A
C1854      C1855   1.508       .  S
C1855      H1859   1.111       .  S
C1855      H1860   1.111       .  S
C1855      H1861   1.109       .  S
C1858      H1862   1.107       .  S
C1858      H1863   1.110       .  S
C1858      H1864   1.111       .  S
C1865      H1872   1.084       .  S
C1865      C1866   1.402       .  A
C1865      C1870   1.413       .  A
C1866      C1867   1.422       .  A
C1867      C1874   1.508       .  S
C1867      C1868   1.412       .  A
C1868      H1873   1.083       .  S
C1868      C1869   1.404       .  A
C1869      C1870   1.424       .  A
C1870      C1871   1.508       .  S
C1871      H1875   1.111       .  S
C1871      H1876   1.110       .  S
C1871      H1877   1.108       .  S
C1874      H1878   1.109       .  S
C1874      H1879   1.111       .  S
C1874      H1880   1.111       .  S
C1881      H1888   1.082       .  S
C1881      C1882   1.402       .  A
C1881      C1886   1.405       .  A
C1882      C1883   1.412       .  A
C1883      C1890   1.508       .  S
C1883      C1884   1.402       .  A
C1884      H1889   1.084       .  S
C1884      C1885   1.400       .  A
C1885      C1886   1.414       .  A
C1886      C1887   1.507       .  S
C1887      H1891   1.111       .  S
C1887      H1892   1.111       .  S
C1887      H1893   1.109       .  S
C1890      H1894   1.110       .  S
C1890      H1895   1.108       .  S
C1890      H1896   1.111       .  S
C1897      H1904   1.084       .  S
C1897      C1898   1.400       .  A
C1897      C1902   1.407       .  A
C1898      C1899   1.413       .  A
C1899      C1906   1.508       .  S
C1899      C1900   1.403       .  A
C1900      H1905   1.083       .  S
C1900      C1901   1.405       .  A
C1901      C1902   1.417       .  A
C1902      C1903   1.508       .  S
C1903      H1907   1.111       .  S
C1903      H1908   1.109       .  S
C1903      H1909   1.110       .  S
C1906      H1910   1.108       .  S
C1906      H1911   1.110       .  S
C1906      H1912   1.111       .  S
C1913      C1918   1.406       .  A
C1915      C1916   1.415       .  A
C1916      H1921   1.083       .  S
C1916      C1917   1.410       .  A
C1917      C1918   1.424       .  A
C1918      C1919   1.509       .  S
C1919      H1923   1.111       .  S
C1919      H1924   1.109       .  S
C1919      H1925   1.109   1_554  S
C1922      H1926   1.110       .  S
C1929      H1936   1.084       .  S
C1929      C1930   1.400       .  A
C1929      C1934   1.408       .  A
C1930      C1931   1.422       .  A
C1931      C1938   1.507       .  S
C1931      C1932   1.410       .  A
C1932      H1937   1.084       .  S
C1932      C1933   1.404       .  A
C1933      C1934   1.413       .  A
C1934      C1935   1.488       .  S
C1935      H1939   1.111       .  S
C1935      H1940   1.109       .  S
C1935      H1941   1.105       .  S
C1938      H1943   1.109       .  S
C1938      H1944   1.111       .  S
C1945      H1952   1.085       .  S
C1945      C1946   1.409       .  A
C1945      C1950   1.392       .  A
C1946      C1947   1.411       .  A
C1947      C1954   1.503       .  S
C1947      C1948   1.419       .  A
C1950      C1951   1.516       .  S
C1951      H1955   1.107       .  S
C1951      H1957   1.111       .  S
C1954      H1958   1.110       .  S
C1954      H1959   1.111       .  S
C1954      H1960   1.111       .  S
C1961      H1968   1.084       .  S
C1961      C1966   1.401       .  A
C1963      C1964   1.417       .  A
C1964      H1969   1.083       .  S
C1964      C1965   1.410   1_545  A
C1965      C1966   1.416       .  A
C1966      C1967   1.510       .  S
C1967      H1971   1.111       .  S
C1967      H1972   1.108       .  S
C1967      H1973   1.109       .  S
C1970      H1974   1.110       .  S
C1977      H1984   1.084       .  S
C1977      C1978   1.400   1_455  A
C1977      C1982   1.401       .  A
C1978      C4115   1.416       .  A
C1979      C1986   1.506       .  S
C1979      C4114   1.416       .  A
C1979      C1980   1.402       .  A
C1980      H1985   1.085       .  S
C1980      C4117   1.401       .  A
C1981      C4116   1.401       .  A
C1981      C1982   1.421   1_655  A
C1982      C1983   1.510       .  S
C1983      H1987   1.111       .  S
C1983      H1988   1.110       .  S
C1983      H1989   1.110       .  S
C1986      H1990   1.109       .  S
C1986      H1991   1.107       .  S
C1986      H1992   1.111       .  S
C1993      H2000   1.084       .  S
C1993      C1994   1.407       .  A
C1993      C1998   1.410       .  A
C1994      C1995   1.416       .  A
C1995      C4138   1.508       .  S
C1995      C1996   1.402       .  A
C1996      H4137   1.084       .  S
C1996      C1997   1.402       .  A
C1997      C1998   1.411       .  A
C1998      C1999   1.506       .  S
C1999      H2003   1.111       .  S
C1999      H2004   1.110       .  S
C1999      H2005   1.111       .  S
H2001      C4132   1.084       .  S
C2002      C4131   1.508       .  S
C2002      H4142   1.111   1_455  S
C2002      H2007   1.107       .  S
C2002      H2008   1.111       .  S
H2006      C4138   1.111       .  S
C2009      H2016   1.077       .  S
C2009      C2010   1.413       .  A
C2009      C2014   1.395       .  A
C2010      C2011   1.430       .  A
C2011      C2018   1.509       .  S
C2011      C2012   1.403       .  A
C2012      H2017   1.084       .  S
C2012      C2013   1.399       .  A
C2013      C2014   1.409       .  A
C2014      C2015   1.508       .  S
C2015      H2019   1.111       .  S
C2015      H2020   1.110       .  S
C2015      H2021   1.110       .  S
C2018      H2022   1.103       .  S
C2018      H2023   1.110       .  S
C2018      H2024   1.111       .  S
C2025      H2032   1.079       .  S
C2025      C2026   1.413       .  A
C2025      C2030   1.397       .  A
C2026      C2027   1.442       .  A
C2027      C2034   1.520       .  S
C2027      C2028   1.389       .  A
C2028      H2033   1.087       .  S
C2028      C2029   1.389       .  A
C2029      C2030   1.411       .  A
C2030      C2031   1.506       .  S
C2031      H2035   1.111       .  S
C2031      H2036   1.108       .  S
C2031      H2037   1.110       .  S
C2034      H2038   1.097       .  S
C2034      H2039   1.109       .  S
C2034      H2040   1.112       .  S
C2041      H2048   1.084       .  S
C2041      C2046   1.402       .  A
C2042      C2043   1.394   1_556  A
C2043      C2050   1.503       .  S
C2044      H2049   1.075       .  S
C2044      C2045   1.426       .  A
C2045      C2046   1.449       .  A
C2046      C2047   1.520       .  S
C2047      H2051   1.111       .  S
C2047      H2052   1.107       .  S
C2047      H2053   1.103       .  S
C2050      H2054   1.109       .  S
C2050      H2055   1.110   1_554  S
C2050      H2056   1.111       .  S
C2057      H2064   1.067       .  S
C2057      C2058   1.410       .  A
C2057      C2062   1.373       .  A
C2058      C2059   1.434       .  A
C2059      C2066   1.503       .  S
C2059      C2060   1.396       .  A
C2060      H2065   1.086       .  S
C2060      C2061   1.390       .  A
C2061      C2062   1.407       .  A
C2062      C2063   1.517       .  S
C2063      H2067   1.111       .  S
C2063      H4204   1.108       .  S
C2063      H2069   1.108       .  S
C2066      H2070   1.109       .  S
C2066      H2071   1.093       .  S
C2066      H2072   1.111       .  S
H2068      C4199   1.108       .  S
C2073      H2080   1.069       .  S
C2073      C2074   1.419       .  A
C2073      C2078   1.389       .  A
C2074      C2075   1.433       .  A
C2075      C2082   1.507       .  S
C2075      C2076   1.395       .  A
C2076      H2081   1.085       .  S
C2076      C2077   1.393       .  A
C2077      C2078   1.401       .  A
C2078      C2079   1.508       .  S
C2079      H2083   1.111       .  S
C2079      H2084   1.109       .  S
C2079      H2085   1.110       .  S
C2082      H2086   1.104       .  S
C2082      H2087   1.111       .  S
C2082      H2088   1.097       .  S
C2089      H2096   1.077       .  S
C2089      C2090   1.412       .  A
C2089      C2094   1.387       .  A
C2090      C2091   1.450       .  A
C2091      C2098   1.513       .  S
C2091      C2092   1.420       .  A
C2092      H2097   1.083       .  S
C2092      C2093   1.402       .  A
C2093      C2094   1.400       .  A
C2094      C2095   1.505       .  S
C2095      H2099   1.110       .  S
C2095      H2100   1.111       .  S
C2095      H2101   1.109       .  S
C2098      H2102   1.109       .  S
C2098      H2103   1.102       .  S
C2098      H2104   1.111       .  S
C2105      H2112   1.065       .  S
C2105      C2106   1.424       .  A
C2105      C2110   1.388       .  A
C2106      C2107   1.455       .  A
C2107      C2114   1.508       .  S
C2107      C2108   1.405       .  A
C2108      H2113   1.085       .  S
C2108      C2109   1.386       .  A
C2109      C2110   1.389       .  A
C2110      C2111   1.511       .  S
C2111      H2115   1.111       .  S
C2111      H2116   1.110       .  S
C2111      H2117   1.107       .  S
C2114      H2118   1.083       .  S
C2114      H2119   1.111       .  S
C2114      H2120   1.111       .  S
C2121      H2128   1.060       .  S
C2121      C2122   1.422       .  A
C2121      C2126   1.393       .  A
C2122      C2123   1.421       .  A
C2123      C2130   1.504       .  S
C2123      C2124   1.405       .  A
C2124      H2129   1.084       .  S
C2124      C2125   1.408       .  A
C2125      C2126   1.394       .  A
C2126      C2127   1.507       .  S
C2127      H2131   1.111       .  S
C2127      H2132   1.110       .  S
C2127      H2133   1.110       .  S
C2130      H2134   1.110       .  S
C2130      H2135   1.106       .  S
C2130      H2136   1.111       .  S
C2137      C2608   1.555       .  S
C2137      C2624   1.577       .  S
C2137      C2640   1.589       .  S
C2137      C2656   1.572       .  S
C2138      C2544   1.559       .  S
C2138      C2560   1.552       .  S
C2138      C2579   1.555       .  S
C2138      C2592   1.548       .  S
C2139      N2157   1.372       .  A
C2139      C2176   1.440       .  S
C2139      C2467   1.491       .  S
N2140      N2157   1.337       .  A
N2140      N2162   1.313       .  A
N2140     Co3245   2.156       .  S
C2141      N2166   1.332       .  A
C2141      C2179   1.459       .  S
H2142      C2183   1.081       .  S
C2143      N2167   1.355       .  A
C2143      C2147   1.480       .  S
C2143      H2172   1.081       .  S
Co2144     N2162   2.015       .  S
Co2144     N2686   2.067       .  S
Co2144     N3252   2.140       .  S
Co2144     N3762   2.038       .  S
N2145      C2183   1.343       .  A
N2145     Co2146   2.090       .  S
Co2146     N2149   2.050       .  S
Co2146     N3221   2.140       .  S
Co2146    Cl3790   2.454   1_554  S
C2147      N2719   1.342       .  A
C2147      C3033   1.489       .  S
N2148      N2155   1.321       .  A
N2148      N2178   1.314       .  A
N2148     Co3249   2.070       .  S
N2149      N2701   1.318   1_554  A
N2149      N2185   1.316       .  A
N2150      C2179   1.341       .  A
N2150      N2160   1.311       .  A
H2151      C2176   1.082       .  S
N2152      N2173   1.319       .  A
N2152     Co2678   2.066   1_554  S
N2153      N2705   1.318   1_554  A
N2153      N2158   1.335       .  A
N2153     Co3214   2.139       .  S
C2154      N2158   1.366       .  A
C2154      C2716   1.442   1_554  S
C2154      C2448   1.484       .  S
N2155      C2170   1.333       .  A
C2156      N2184   1.356   1_545  A
C2156      C2159   1.487       .  S
C2156      H2190   1.081   1_545  S
C2159      N2180   1.341       .  A
C2159      C2480   1.492       .  S
N2160      N2166   1.318       .  A
N2160     Co3746   2.038   1_544  S
N2161      C2187   1.341       .  A
N2161      N2163   1.317   1_455  A
N2162      C2176   1.325       .  A
N2163      N2191   1.326       .  A
N2163     Co2181   2.077       .  S
H2164      C2187   1.080       .  S
H2165      C2182   1.082       .  S
N2167      N2683   1.318       .  A
N2167     Co3249   2.124       .  S
N2168      N2180   1.313       .  A
N2168      N2184   1.316   1_545  A
N2168     Co2177   2.041   1_545  S
C2169      N2173   1.344       .  A
C2169      C2515   1.478       .  S
C2170      C2189   1.456       .  S
C2170      H2174   1.080       .  S
N2171      C2182   1.326       .  A
N2171      N2687   1.318       .  A
N2171     Co2181   2.039       .  S
C2175      N2191   1.349   1_455  A
C2175      C2187   1.465       .  S
C2175      C2528   1.484       .  S
Co2177     N3208   2.156       .  S
N2178      C2189   1.350       .  A
C2179      C2595   1.432       .  S
Co2181     N3216   2.070   1_545  S
Co2181     N3235   2.123       .  S
Co2181    Cl2188   2.438   1_545  S
C2182      C2688   1.442       .  S
N2184     Co3212   2.139       .  S
N2185      C2681   1.342       .  A
Cl2188    Co3748   2.454   1_565  S
C2189      C2611   1.458       .  S
C2192      N2210   1.355       .  A
C2192      C2229   1.460       .  S
C2192      C2576   1.476       .  S
N2193      N2210   1.323       .  A
N2193      N2215   1.316       .  A
N2193     Co2764   2.066       .  S
C2194      N2219   1.347       .  A
C2194      C2232   1.466       .  S
C2194      H2239   1.081       .  S
H2195      C2236   1.081       .  S
C2196      N2220   1.355       .  A
C2196      C2200   1.481       .  S
C2196      H2225   1.081       .  S
Co2197     N2215   2.059       .  S
Co2197     N2205   2.107       .  S
Co2197     N2771   2.110       .  S
Co2197     N2213   2.064       .  S
Co2197    Cl2241   2.453       .  S
N2198      C2236   1.331       .  A
N2198      N2205   1.315       .  A
N2198     Co2199   2.047       .  S
Co2199     N2202   2.072       .  S
Co2199     N2219   2.101       .  S
Co2199     N2206   2.036       .  S
Co2199    Cl2241   2.422       .  S
C2200      N2238   1.342       .  A
C2200      C2403   1.503       .  S
N2201      N2208   1.319       .  A
N2201      N2231   1.323       .  A
N2201     Co2234   2.088       .  S
N2202      N2220   1.320       .  A
N2202      N2238   1.322       .  A
N2203      C2232   1.348       .  A
N2203      N2213   1.324       .  A
H2204      C2229   1.080       .  S
N2205      N2226   1.329       .  A
N2206      N2224   1.316       .  A
N2206      N2211   1.303       .  A
C2207      N2211   1.342       .  A
C2207      C2235   1.478       .  S
C2207      C2627   1.486       .  S
N2208      C2223   1.349       .  A
N2208     Co2764   2.098       .  S
C2209      N2237   1.350       .  A
C2209      C2212   1.474       .  S
C2209      H2243   1.081       .  S
C2212      N2233   1.349       .  A
C2212      C2384   1.508       .  S
N2213      N2219   1.317       .  A
N2214      C2240   1.331       .  A
N2214      N2216   1.320       .  A
N2214     Co2230   2.057       .  S
N2215      C2229   1.329       .  A
N2216      N2244   1.330       .  A
N2216     Co2768   2.115   1_554  S
H2217      C2240   1.081       .  S
H2218      C2235   1.081       .  S
N2220     Co2234   2.126       .  S
N2221      N2233   1.327       .  A
N2221      N2237   1.320       .  A
N2221     Co2230   2.091       .  S
C2222      N2226   1.357       .  A
C2222      C2236   1.448       .  S
C2222      C2416   1.471       .  S
C2223      C2242   1.469       .  S
C2223      H2227   1.082       .  S
N2224      C2235   1.358       .  A
N2224     Co2234   2.105       .  S
C2228      N2244   1.359       .  A
C2228      C2240   1.446       .  S
C2228      C2432   1.472       .  S
Co2230     N2727   2.065       .  S
Co2230     N2742   2.097       .  S
Co2230    Cl2775   2.439   1_554  S
N2231      C2242   1.351       .  A
C2232      C2464   1.495       .  S
Co2234     N2750   2.115       .  S
Co2234    Cl2241   2.464       .  S
N2237     Co2731   2.110   1_554  S
Cl2241    Co2764   2.439       .  S
C2242      C2451   1.503       .  S
C2245      N2263   1.343       .  A
C2245      C2282   1.463       .  S
C2245      C2419   1.471       .  S
N2246      N2263   1.322       .  A
N2246      N2268   1.322       .  A
N2246     Co2283   2.080       .  S
C2247      N2272   1.340       .  A
C2247      H2292   1.081       .  S
H2248      C2289   1.078       .  S
C2249      N2273   1.328       .  A
C2249      C2253   1.439       .  S
C2249      H2278   1.082       .  S
Co2250     N2268   2.091       .  S
Co2250     N2258   2.080       .  S
Co2250     N2290   2.051       .  S
Co2250     N2266   2.085       .  S
N2251      C2289   1.357       .  A
N2251      N2258   1.320       .  A
Co2252     N2255   2.114       .  S
Co2252     N2272   2.079       .  S
Co2252     N2259   2.089       .  S
Co2252    Cl2294   2.468       .  S
C2253      N2291   1.361       .  A
C2253      C2659   1.461       .  S
N2254      N2261   1.317   1_655  A
N2254      N2284   1.329       .  A
N2254     Co2287   2.102       .  S
N2255      N2273   1.322       .  A
N2255      N2291   1.325       .  A
N2256      C2285   1.350       .  A
N2256      N2266   1.324       .  A
H2257      C2282   1.081       .  S
N2258      N2279   1.326       .  A
N2259      N2277   1.321       .  A
N2259      N2264   1.323       .  A
C2260      N2264   1.346       .  A
C2260      C2288   1.465       .  S
C2260      C2435   1.485       .  S
C2262      N2290   1.336       .  A
C2262      C2265   1.449       .  S
C2262      H2296   1.080       .  S
C2265      N2286   1.354       .  A
C2265      C2563   1.464       .  S
N2267      C2293   1.352       .  A
N2267      N2269   1.315       .  A
N2268      C2282   1.344       .  A
N2269      N2297   1.323       .  A
N2269     Co2287   2.074       .  S
H2270      C2293   1.078       .  S
H2271      C2288   1.081       .  S
N2273     Co2287   2.045       .  S
N2274      N2286   1.315       .  A
N2274      N2290   1.316       .  A
N2274     Co2283   2.069       .  S
C2275      N2279   1.350       .  A
C2275      C2289   1.490       .  S
C2275      C2368   1.527       .  S
C2276      H2280   1.082       .  S
N2277      C2288   1.343       .  A
N2277     Co2287   2.090       .  S
C2281      N2297   1.351       .  A
C2281      C2293   1.486       .  S
C2281      C2355   1.518       .  S
N2284      C2295   1.356       .  A
C2285      C2512   1.475       .  S
Co2287    Cl2294   2.432       .  S
C2295      C2531   1.480       .  S
C2298      N2316   1.357       .  A
C2298      C2335   1.449       .  S
C2298      C2483   1.480       .  S
N2299      N2316   1.334       .  A
N2299      N2321   1.318       .  A
N2299     Co3404   2.110       .  S
C2300      N2325   1.336       .  A
C2300      C2338   1.461       .  S
C2300      H2345   1.081       .  S
H2301      C2342   1.081       .  S
C2302      N2326   1.350       .  A
C2302      C2306   1.472       .  S
C2302      H2331   1.082       .  S
Co2303     N3389   2.050       .  S
Co2303     N3379   2.121       .  S
Co2303     N2343   2.130       .  S
Co2303     N2319   2.063       .  S
Co2303    Cl3415   2.452       .  S
N2304      C2342   1.349       .  A
N2304      N2311   1.322       .  A
N2304     Co2305   2.112       .  S
Co2305     N2308   2.088       .  S
Co2305     N3393   2.087       .  S
Co2305     N3380   2.109       .  S
Co2305    Cl2347   2.456       .  S
C2306      N2344   1.351       .  A
C2306      C2387   1.501       .  S
N2307      N2314   1.319       .  A
N2307      N2337   1.326       .  A
N2307     Co2340   2.063       .  S
N2308      N2326   1.320       .  A
N2308      N2344   1.326       .  A
N2309      C2338   1.347       .  A
N2309      N2319   1.323       .  A
H2310      C2335   1.082       .  S
N2311      N2332   1.334       .  A
N2311     Co3371   2.121       .  S
N2312      N2330   1.319       .  A
N2312      N2317   1.332       .  A
N2312     Co3373   2.109       .  S
C2313      N2317   1.357       .  A
C2313      C2341   1.458       .  S
C2313      C2496   1.488       .  S
N2314      C2329   1.327       .  A
N2314     Co3404   2.062       .  S
C2315      N2343   1.354       .  A
C2315      C2318   1.477       .  S
C2315      H2349   1.082       .  S
C2318      N2339   1.346       .  A
C2318      C2400   1.500       .  S
N2319      N2325   1.319       .  A
N2320      C2346   1.342       .  A
N2320      N2322   1.321       .  A
N2320     Co2336   2.093       .  S
N2321      C2335   1.327       .  A
N2321     Co3371   2.050       .  S
N2322      N2350   1.333       .  A
N2322     Co3408   2.117   1_545  S
H2323      C2346   1.080       .  S
H2324      C2341   1.082   1_565  S
N2325     Co3373   2.087       .  S
N2326     Co2340   2.121       .  S
N2327      N2339   1.323       .  A
N2327      N2343   1.321       .  A
N2327     Co2336   2.077       .  S
C2328      N2332   1.357       .  A
C2328      C2342   1.466       .  S
C2328      C2371   1.509       .  S
C2329      C2348   1.455       .  S
C2329      H2333   1.080       .  S
N2330      C2341   1.334       .  A
N2330     Co3408   2.069   1_545  S
C2334      N2350   1.358       .  A
C2334      C2346   1.459       .  S
C2334      C2352   1.498       .  S
Co2336     N3367   2.110       .  S
Co2336     N3382   2.062   1_545  S
Co2336    Cl3415   2.454       .  S
N2337      C2348   1.346       .  A
C2338      C2547   1.466       .  S
Co2340     N3390   2.117       .  S
Co2340     N3398   2.070       .  S
Co2340    Cl2347   2.450       .  S
Cl2347    Co3371   2.452       .  S
Cl2347    Co3404   2.454       .  S
C2348      C2643   1.462       .  S
C2351      H2358   1.084       .  S
C2351      C2352   1.404       .  A
C2351      C2356   1.419       .  A
C2352      C2353   1.415       .  A
C2353      C2360   1.510       .  S
C2353      C2354   1.408       .  A
C2354      H2359   1.084       .  S
C2354      C2355   1.412       .  A
C2355      C2356   1.426       .  A
C2356      C2357   1.502       .  S
C2357      H2361   1.111       .  S
C2357      H2362   1.109       .  S
C2357      H2363   1.110       .  S
C2360      H2364   1.108       .  S
C2360      H2365   1.110       .  S
C2360      H2366   1.111       .  S
C2367      H2374   1.084       .  S
C2367      C2368   1.414       .  A
C2367      C2372   1.416       .  A
C2368      C2369   1.426       .  A
C2369      C2376   1.503       .  S
C2369      C2370   1.423       .  A
C2370      H2375   1.084       .  S
C2370      C2371   1.406       .  A
C2371      C2372   1.415       .  A
C2372      C2373   1.508       .  S
C2373      H2377   1.111       .  S
C2373      H2378   1.111       .  S
C2373      H2379   1.110       .  S
C2376      H2380   1.109       .  S
C2376      H2381   1.110       .  S
C2376      H2382   1.111       .  S
C2383      H2390   1.082       .  S
C2383      C2384   1.407       .  A
C2383      C2388   1.412       .  A
C2384      C2385   1.423       .  A
C2385      C2392   1.507       .  S
C2385      C2386   1.414       .  A
C2386      H2391   1.084       .  S
C2386      C2387   1.404       .  A
C2387      C2388   1.420       .  A
C2388      C2389   1.508       .  S
C2389      H2393   1.111       .  S
C2389      H2394   1.111       .  S
C2389      H2395   1.109       .  S
C2392      H2396   1.107       .  S
C2392      H2397   1.110       .  S
C2392      H2398   1.111       .  S
C2399      H2406   1.084       .  S
C2399      C2400   1.402       .  A
C2399      C2404   1.413       .  A
C2400      C2401   1.422       .  A
C2401      C2408   1.508       .  S
C2401      C2402   1.412       .  A
C2402      H2407   1.083       .  S
C2402      C2403   1.404       .  A
C2403      C2404   1.424       .  A
C2404      C2405   1.508       .  S
C2405      H2409   1.111       .  S
C2405      H2410   1.110       .  S
C2405      H2411   1.108       .  S
C2408      H2412   1.109       .  S
C2408      H2413   1.111       .  S
C2408      H2414   1.111       .  S
C2415      H2422   1.082       .  S
C2415      C2416   1.402       .  A
C2415      C2420   1.405       .  A
C2416      C2417   1.412       .  A
C2417      C2424   1.508       .  S
C2417      C2418   1.402       .  A
C2418      H2423   1.084       .  S
C2418      C2419   1.400       .  A
C2419      C2420   1.414       .  A
C2420      C2421   1.507       .  S
C2421      H2425   1.111       .  S
C2421      H2426   1.111       .  S
C2421      H2427   1.109       .  S
C2424      H2428   1.110       .  S
C2424      H2429   1.108       .  S
C2424      H2430   1.111       .  S
C2431      H2438   1.084       .  S
C2431      C2432   1.400       .  A
C2431      C2436   1.407       .  A
C2432      C2433   1.413       .  A
C2433      C2440   1.508       .  S
C2433      C2434   1.403       .  A
C2434      H2439   1.083       .  S
C2434      C2435   1.405       .  A
C2435      C2436   1.417       .  A
C2436      C2437   1.507       .  S
C2437      H2441   1.111       .  S
C2437      H2442   1.109       .  S
C2437      H2443   1.110       .  S
C2440      H2444   1.108       .  S
C2440      H2445   1.110       .  S
C2440      H2446   1.111       .  S
C2447      H2988   1.085       .  S
C2447      C2982   1.400       .  A
C2447      C2452   1.406       .  A
C2448      C2981   1.400       .  A
C2448      C2983   1.411       .  A
C2449      C2990   1.503       .  S
C2449      C2982   1.411       .  A
C2449      C2450   1.415       .  A
C2450      H2455   1.083       .  S
C2450      C2451   1.410       .  A
C2451      C2452   1.424       .  A
C2452      C2453   1.509       .  S
C2453      H2457   1.111       .  S
C2453      H2458   1.109       .  S
C2453      H2459   1.109       .  S
H2454      C2981   1.085       .  S
C2456      C2983   1.503       .  S
C2456      H2460   1.110       .  S
C2456      H2995   1.110       .  S
C2456      H2996   1.104       .  S
H2461      C2990   1.110       .  S
H2462      C2990   1.104       .  S
C2463      H2470   1.084       .  S
C2463      C2464   1.400       .  A
C2463      C2468   1.408       .  A
C2464      C2465   1.422       .  A
C2465      C2472   1.507       .  S
C2465      C2466   1.410       .  A
C2466      H2471   1.084       .  S
C2466      C2467   1.404       .  A
C2467      C2468   1.413       .  A
C2468      C2469   1.488       .  S
C2469      H2473   1.111       .  S
C2469      H2474   1.109       .  S
C2469      H2475   1.105       .  S
C2472      H3010   1.109       .  S
C2472      H2477   1.109       .  S
C2472      H2478   1.111       .  S
H2476      C3006   1.109       .  S
C2479      H2486   1.085       .  S
C2479      C2480   1.408   1_565  A
C2479      C2484   1.392       .  A
C2480      C2481   1.411       .  A
C2481      C2488   1.503       .  S
C2481      C2482   1.419       .  A
C2482      H3555   1.083       .  S
C2482      C3551   1.411       .  A
C2483      C3550   1.411       .  A
C2483      C3552   1.411       .  A
C2484      C2485   1.515       .  S
C2484      C3551   1.411   1_565  A
C2485      H2489   1.107       .  S
C2485      H3558   1.108       .  S
C2485      H2491   1.111       .  S
H2487      C3550   1.083       .  S
C2488      H2492   1.110       .  S
C2488      H2493   1.111       .  S
C2488      H2494   1.111       .  S
H2490      C3553   1.108       .  S
C2495      H2502   1.084       .  S
C2495      C3564   1.403       .  A
C2495      C2500   1.401       .  A
C2496      C3563   1.403   1_545  A
C2496      C3565   1.411       .  A
C2497      C3572   1.505       .  S
C2497      C3564   1.411       .  A
C2497      C2498   1.417       .  A
C2498      H2503   1.083       .  S
C2498      C2499   1.410       .  A
C2499      C2681   1.489       .  S
C2499      C2500   1.416       .  A
C2500      C2501   1.510       .  S
C2501      H2505   1.111       .  S
C2501      H2506   1.108       .  S
C2501      H2507   1.109       .  S
C2504      C3565   1.505       .  S
C2504      H2508   1.110       .  S
C2504      H3577   1.110       .  S
C2504      H3578   1.111       .  S
H2509      C3572   1.110       .  S
H2510      C3572   1.111       .  S
C2511      H2518   1.084       .  S
C2511      C2512   1.400       .  A
C2511      C2516   1.401       .  A
C2513      C2520   1.506       .  S
C2513      C2514   1.402       .  A
C2514      H2519   1.085       .  S
C2515      C2516   1.421       .  A
C2516      C2517   1.510       .  S
C2517      H2521   1.111       .  S
C2517      H2522   1.110       .  S
C2517      H2523   1.110       .  S
C2520      H2524   1.109       .  S
C2520      H2525   1.107       .  S
C2520      H2526   1.111       .  S
C2527      H2534   1.084       .  S
C2527      C2528   1.407   1_655  A
C2527      C2532   1.410       .  A
C2528      C2529   1.416       .  A
C2529      C2530   1.402       .  A
C2530      C2531   1.402   1_455  A
C2531      C2532   1.411       .  A
C2532      C2533   1.506       .  S
C2533      H2537   1.111       .  S
C2533      H2538   1.110       .  S
C2533      H2539   1.111   1_655  S
C2536      H2541   1.107       .  S
C2536      H2542   1.111       .  S
C2543      H2550   1.077       .  S
C2543      C2544   1.413       .  A
C2543      C2548   1.395       .  A
C2544      C2545   1.431       .  A
C2545      C2552   1.509       .  S
C2545      C2546   1.403       .  A
C2546      H2551   1.084       .  S
C2546      C2547   1.399       .  A
C2547      C2548   1.409       .  A
C2548      C2549   1.508       .  S
C2549      H2553   1.111       .  S
C2549      H2554   1.110       .  S
C2549      H2555   1.110       .  S
C2552      H2556   1.103       .  S
C2552      H2557   1.110       .  S
C2552      H2558   1.111       .  S
C2559      H2566   1.079       .  S
C2559      C2560   1.413       .  A
C2559      C2564   1.397       .  A
C2560      C2561   1.442       .  A
C2561      C2568   1.520       .  S
C2561      C2562   1.389       .  A
C2562      H2567   1.087       .  S
C2562      C2563   1.389       .  A
C2563      C2564   1.410       .  A
C2564      C2565   1.506       .  S
C2565      H2569   1.111       .  S
C2565      H2570   1.108       .  S
C2565      H2571   1.110       .  S
C2568      H2572   1.097       .  S
C2568      H2573   1.109       .  S
C2568      H2574   1.112       .  S
C2575      H2582   1.084       .  S
C2575      C3110   1.391       .  A
C2575      C2580   1.402   1_556  A
C2576      C3109   1.392       .  A
C2576      C2577   1.394       .  A
C2577      C2584   1.503       .  S
C2577      C3112   1.397       .  A
C2578      H2583   1.075       .  S
C2578      C3111   1.397       .  A
C2578      C2579   1.426       .  A
C2579      C2580   1.449       .  A
C2580      C2581   1.520       .  S
C2581      H2585   1.111   1_554  S
C2581      H2586   1.107       .  S
C2581      H2587   1.103       .  S
C2584      H2588   1.109       .  S
C2584      H2589   1.110       .  S
C2584      H2590   1.111       .  S
C2591      H2598   1.067       .  S
C2591      C2592   1.410       .  A
C2591      C2596   1.373       .  A
C2592      C2593   1.434       .  A
C2593      C2600   1.503       .  S
C2593      C2594   1.396       .  A
C2594      H2599   1.086       .  S
C2594      C2595   1.390       .  A
C2595      C2596   1.407       .  A
C2596      C2597   1.517       .  S
C2597      H2601   1.111       .  S
C2597      H2603   1.108       .  S
C2600      H2604   1.109       .  S
C2600      H2605   1.092       .  S
C2600      H2606   1.111       .  S
C2607      H2614   1.069       .  S
C2607      C2608   1.419       .  A
C2607      C2612   1.389       .  A
C2608      C2609   1.433       .  A
C2609      C2616   1.507       .  S
C2609      C2610   1.394       .  A
C2610      H2615   1.085       .  S
C2610      C2611   1.393       .  A
C2611      C2612   1.401       .  A
C2612      C2613   1.508       .  S
C2613      H2617   1.111       .  S
C2613      H2618   1.109       .  S
C2613      H2619   1.110       .  S
C2616      H2620   1.104       .  S
C2616      H2621   1.111       .  S
C2616      H2622   1.097       .  S
C2623      H2630   1.077       .  S
C2623      C2624   1.411       .  A
C2623      C2628   1.387       .  A
C2624      C2625   1.450       .  A
C2625      C2632   1.513       .  S
C2625      C2626   1.421       .  A
C2626      H2631   1.083       .  S
C2626      C2627   1.402       .  A
C2627      C2628   1.400       .  A
C2628      C2629   1.505       .  S
C2629      H2633   1.110       .  S
C2629      H2634   1.111       .  S
C2629      H2635   1.108       .  S
C2632      H2636   1.109       .  S
C2632      H2637   1.102       .  S
C2632      H2638   1.111       .  S
C2639      H2646   1.065       .  S
C2639      C2640   1.425       .  A
C2639      C2644   1.388       .  A
C2640      C2641   1.455       .  A
C2641      C2648   1.508       .  S
C2641      C2642   1.405       .  A
C2642      H2647   1.085       .  S
C2642      C2643   1.386       .  A
C2643      C2644   1.388       .  A
C2644      C2645   1.511       .  S
C2645      H2649   1.111       .  S
C2645      H2650   1.110       .  S
C2645      H2651   1.107       .  S
C2648      H2652   1.083       .  S
C2648      H2653   1.111       .  S
C2648      H2654   1.111       .  S
C2655      H2662   1.060       .  S
C2655      C2656   1.422       .  A
C2655      C2660   1.393       .  A
C2656      C2657   1.421       .  A
C2657      C2664   1.504       .  S
C2657      C2658   1.405       .  A
C2658      H2663   1.084       .  S
C2658      C2659   1.408       .  A
C2659      C2660   1.394       .  A
C2660      C2661   1.507       .  S
C2661      H2665   1.111       .  S
C2661      H2666   1.110       .  S
C2661      H2667   1.110       .  S
C2664      H2668   1.110       .  S
C2664      H2669   1.106       .  S
C2664      H2670   1.111       .  S
C2671      C3142   1.555       .  S
C2671      C3158   1.577       .  S
C2671      C3174   1.589       .  S
C2671      C3190   1.572       .  S
C2672      C3078   1.559       .  S
C2672      C3094   1.552       .  S
C2672      C3113   1.555       .  S
C2672      C3126   1.548       .  S
C2673      N2691   1.372       .  A
C2673      C2710   1.440       .  S
C2673      C3001   1.492       .  S
N2674      N2691   1.337       .  A
N2674      N2696   1.313       .  A
N2674     Co3779   2.156       .  S
C2675      N2700   1.332       .  A
C2675      C2713   1.459       .  S
H2676      C2717   1.081       .  S
C2677      N2701   1.355       .  A
C2677      C2681   1.480   1_556  S
C2677      H2706   1.081       .  S
Co2678     N2696   2.015       .  S
Co2678     N3786   2.139       .  S
Co2678     N3228   2.038   1_556  S
N2679      C2717   1.343       .  A
N2679     Co2680   2.090       .  S
Co2680     N2683   2.050       .  S
Co2680     N3755   2.139       .  S
Co2680    Cl3256   2.455       .  S
N2682      N2689   1.321       .  A
N2682      N2712   1.313       .  A
N2682     Co3783   2.070       .  S
N2683      N2719   1.316       .  A
N2684      C2713   1.341       .  A
N2684      N2694   1.311       .  A
H2685      C2710   1.082       .  S
N2686      N2707   1.320       .  A
N2687      N2692   1.335       .  A
N2687     Co3748   2.139       .  S
C2688      N2692   1.366       .  A
C2688      C2982   1.484       .  S
N2689      C2704   1.333       .  A
C2690      N2718   1.356   1_545  A
C2690      C2693   1.487       .  S
C2690      H2724   1.081   1_545  S
C2693      N2714   1.341       .  A
C2693      C3014   1.492       .  S
N2694      N2700   1.319       .  A
N2694     Co3212   2.038   1_545  S
N2695      C2721   1.341       .  A
N2695      N2697   1.317   1_455  A
N2696      C2710   1.325       .  A
N2697      N2725   1.326       .  A
N2697     Co2715   2.077       .  S
H2698      C2721   1.080       .  S
H2699      C2716   1.082       .  S
N2701     Co3783   2.123       .  S
N2702      N2714   1.313       .  A
N2702      N2718   1.316   1_545  A
N2702     Co2711   2.041   1_545  S
C2703      N2707   1.344       .  A
C2703      C3049   1.478       .  S
C2704      C2723   1.456       .  S
C2704      H2708   1.080       .  S
N2705      C2716   1.326       .  A
N2705     Co2715   2.039       .  S
C2709      N2725   1.349   1_455  A
C2709      C2721   1.465       .  S
C2709      C3062   1.484       .  S
Co2711     N3742   2.157       .  S
N2712      C2723   1.350       .  A
C2713      C3129   1.432       .  S
Co2715     N3750   2.070   1_545  S
Co2715     N3769   2.123       .  S
Co2715    Cl2722   2.438   1_545  S
N2718     Co3746   2.140       .  S
Cl2722    Co3214   2.454   1_566  S
C2723      C3145   1.458       .  S
C2726      N2744   1.355   1_556  A
C2726      C2763   1.461       .  S
C2726      C3110   1.476       .  S
N2727      N2744   1.323       .  A
N2727      N2749   1.316   1_554  A
C2728      N2753   1.347       .  A
C2728      C2766   1.466       .  S
C2728      H2773   1.081       .  S
H2729      C2770   1.081       .  S
C2730      N2754   1.355       .  A
C2730      C2734   1.481       .  S
C2730      H2759   1.081       .  S
Co2731     N2749   2.060       .  S
Co2731     N2739   2.106       .  S
Co2731     N2747   2.065       .  S
Co2731    Cl2775   2.453       .  S
N2732      C2770   1.331       .  A
N2732      N2739   1.315       .  A
N2732     Co2733   2.047       .  S
Co2733     N2736   2.072       .  S
Co2733     N2753   2.101       .  S
Co2733     N2740   2.036       .  S
Co2733    Cl2775   2.422       .  S
C2734      N2772   1.342       .  A
C2734      C2937   1.503       .  S
N2735      N2742   1.319   1_556  A
N2735      N2765   1.323       .  A
N2735     Co2768   2.088       .  S
N2736      N2754   1.320       .  A
N2736      N2772   1.322       .  A
N2737      C2766   1.348       .  A
N2737      N2747   1.324       .  A
H2738      C2763   1.080       .  S
N2739      N2760   1.329       .  A
N2740      N2758   1.316       .  A
N2740      N2745   1.303       .  A
C2741      N2745   1.342       .  A
C2741      C2769   1.478       .  S
C2741      C3161   1.486       .  S
N2742      C2757   1.349       .  A
C2743      N2771   1.350       .  A
C2743      C2746   1.474       .  S
C2743      H2777   1.081       .  S
C2746      N2767   1.349       .  A
C2746      C2918   1.508       .  S
N2747      N2753   1.318       .  A
N2748      C2774   1.331       .  A
N2748      N2750   1.320       .  A
N2748     Co2764   2.058       .  S
N2749      C2763   1.329       .  A
N2750      N2778   1.330       .  A
H2751      C2774   1.081       .  S
H2752      C2769   1.081       .  S
N2754     Co2768   2.126       .  S
N2755      N2767   1.327       .  A
N2755      N2771   1.320       .  A
N2755     Co2764   2.091       .  S
C2756      N2760   1.357       .  A
C2756      C2770   1.448       .  S
C2756      C2950   1.471       .  S
C2757      C2776   1.469       .  S
C2757      H2761   1.082       .  S
N2758      C2769   1.358       .  A
N2758     Co2768   2.105       .  S
C2762      N2778   1.359       .  A
C2762      C2774   1.446       .  S
C2762      C2966   1.472       .  S
N2765      C2776   1.351   1_556  A
C2766      C2998   1.496       .  S
Co2768    Cl2775   2.464       .  S
C2776      C2985   1.503       .  S
C2779      N2797   1.343       .  A
C2779      C2816   1.463       .  S
C2779      C2953   1.471       .  S
N2780      N2797   1.322       .  A
N2780      N2802   1.322       .  A
N2780     Co2817   2.080       .  S
C2781      N2806   1.340       .  A
C2781      H2826   1.081       .  S
H2782      C2823   1.078       .  S
C2783      N2807   1.328       .  A
C2783      C2787   1.439       .  S
C2783      H2812   1.082       .  S
Co2784     N2802   2.090       .  S
Co2784     N2792   2.080       .  S
Co2784     N2824   2.051       .  S
Co2784     N2800   2.085       .  S
N2785      C2823   1.358       .  A
N2785      N2792   1.320       .  A
Co2786     N2789   2.114       .  S
Co2786     N2806   2.078       .  S
Co2786     N2793   2.089       .  S
Co2786    Cl2828   2.468       .  S
C2787      N2825   1.361       .  A
C2787      C3193   1.461       .  S
N2788      N2795   1.317   1_655  A
N2788      N2818   1.329       .  A
N2788     Co2821   2.102       .  S
N2789      N2807   1.322       .  A
N2789      N2825   1.325       .  A
N2790      C2819   1.350       .  A
N2790      N2800   1.324       .  A
H2791      C2816   1.081       .  S
N2792      N2813   1.326       .  A
N2793      N2811   1.321       .  A
N2793      N2798   1.323       .  A
C2794      N2798   1.346       .  A
C2794      C2822   1.465       .  S
C2794      C2969   1.485       .  S
C2796      N2824   1.336       .  A
C2796      C2799   1.449       .  S
C2796      H2830   1.080       .  S
C2799      N2820   1.354       .  A
C2799      C3097   1.464       .  S
N2801      C2827   1.352       .  A
N2801      N2803   1.315       .  A
N2802      C2816   1.344       .  A
N2803      N2831   1.323       .  A
N2803     Co2821   2.074       .  S
H2804      C2827   1.078       .  S
H2805      C2822   1.081       .  S
N2807     Co2821   2.045       .  S
N2808      N2820   1.315       .  A
N2808      N2824   1.316       .  A
N2808     Co2817   2.069       .  S
C2809      N2813   1.350       .  A
C2809      C2823   1.491       .  S
C2809      C2902   1.527       .  S
C2810      H2814   1.082       .  S
N2811      C2822   1.343       .  A
N2811     Co2821   2.090       .  S
C2815      N2831   1.351       .  A
C2815      C2827   1.486       .  S
C2815      C2889   1.518       .  S
N2818      C2829   1.356       .  A
C2819      C3046   1.476       .  S
Co2821    Cl2828   2.432       .  S
C2829      C3065   1.480       .  S
C2832      N2850   1.357       .  A
C2832      C2869   1.448       .  S
C2832      C3017   1.479       .  S
N2833      N2850   1.333       .  A
N2833      N2855   1.318       .  A
N2833     Co3938   2.110       .  S
C2834      N2859   1.336       .  A
C2834      C2872   1.461       .  S
C2834      H2879   1.081       .  S
H2835      C2876   1.081       .  S
C2836      N2860   1.350       .  A
C2836      C2840   1.472       .  S
C2836      H2865   1.082       .  S
Co2837     N3923   2.049       .  S
Co2837     N3913   2.121       .  S
Co2837     N2877   2.130       .  S
Co2837     N2853   2.063       .  S
Co2837    Cl3949   2.452       .  S
N2838      C2876   1.349       .  A
N2838      N2845   1.322       .  A
N2838     Co2839   2.113       .  S
Co2839     N2842   2.088       .  S
Co2839     N3927   2.088       .  S
Co2839     N3914   2.110       .  S
Co2839    Cl2881   2.456       .  S
C2840      N2878   1.351       .  A
C2840      C2921   1.501       .  S
N2841      N2848   1.319       .  A
N2841      N2871   1.326       .  A
N2841     Co2874   2.063       .  S
N2842      N2860   1.320       .  A
N2842      N2878   1.326       .  A
N2843      C2872   1.347       .  A
N2843      N2853   1.323       .  A
H2844      C2869   1.082       .  S
N2845      N2866   1.334       .  A
N2845     Co3905   2.121       .  S
N2846      N2864   1.319       .  A
N2846      N2851   1.332       .  A
N2846     Co3907   2.109       .  S
C2847      N2851   1.357       .  A
C2847      C2875   1.458       .  S
C2847      C3030   1.488       .  S
N2848      C2863   1.327       .  A
N2848     Co3938   2.062       .  S
C2849      N2877   1.354       .  A
C2849      C2852   1.477       .  S
C2849      H2883   1.082       .  S
C2852      N2873   1.346       .  A
C2852      C2934   1.500       .  S
N2853      N2859   1.319       .  A
N2854      C2880   1.342       .  A
N2854      N2856   1.321       .  A
N2854     Co2870   2.094       .  S
N2855      C2869   1.327       .  A
N2855     Co3905   2.050       .  S
N2856      N2884   1.333       .  A
N2856     Co3942   2.117   1_545  S
H2857      C2880   1.080       .  S
H2858      C2875   1.082   1_565  S
N2859     Co3907   2.088       .  S
N2860     Co2874   2.121       .  S
N2861      N2873   1.323       .  A
N2861      N2877   1.321       .  A
N2861     Co2870   2.077       .  S
C2862      N2866   1.357       .  A
C2862      C2876   1.467       .  S
C2862      C2905   1.510       .  S
C2863      C2882   1.455       .  S
C2863      H2867   1.080       .  S
N2864      C2875   1.334       .  A
N2864     Co3942   2.070   1_545  S
C2868      N2884   1.358       .  A
C2868      C2880   1.459       .  S
C2868      C2886   1.498       .  S
Co2870     N3901   2.110       .  S
Co2870     N3916   2.062   1_545  S
Co2870    Cl3949   2.454       .  S
N2871      C2882   1.346       .  A
C2872      C3081   1.466       .  S
Co2874     N3924   2.117       .  S
Co2874     N3932   2.069       .  S
Co2874    Cl2881   2.450       .  S
Cl2881    Co3905   2.453       .  S
Cl2881    Co3938   2.454       .  S
C2882      C3177   1.462       .  S
C2885      H2892   1.084       .  S
C2885      C2886   1.404       .  A
C2885      C2890   1.419       .  A
C2886      C2887   1.415       .  A
C2887      C2894   1.510       .  S
C2887      C2888   1.408       .  A
C2888      H2893   1.084       .  S
C2888      C2889   1.412       .  A
C2889      C2890   1.426       .  A
C2890      C2891   1.502       .  S
C2891      H2895   1.111       .  S
C2891      H2896   1.109       .  S
C2891      H2897   1.110       .  S
C2894      H2898   1.108       .  S
C2894      H2899   1.110       .  S
C2894      H2900   1.111       .  S
C2901      H2908   1.084       .  S
C2901      C2902   1.414       .  A
C2901      C2906   1.416       .  A
C2902      C2903   1.426       .  A
C2903      C2910   1.503       .  S
C2903      C2904   1.424       .  A
C2904      H2909   1.084       .  S
C2904      C2905   1.407       .  A
C2905      C2906   1.414       .  A
C2906      C2907   1.508       .  S
C2907      H2911   1.111       .  S
C2907      H2912   1.111       .  S
C2907      H2913   1.110       .  S
C2910      H2914   1.109       .  S
C2910      H2915   1.110       .  S
C2910      H2916   1.111       .  S
C2917      H2924   1.082       .  S
C2917      C2918   1.407       .  A
C2917      C2922   1.412       .  A
C2918      C2919   1.423       .  A
C2919      C2926   1.507       .  S
C2919      C2920   1.414       .  A
C2920      H2925   1.084       .  S
C2920      C2921   1.404       .  A
C2921      C2922   1.420       .  A
C2922      C2923   1.508       .  S
C2923      H2927   1.111       .  S
C2923      H2928   1.111       .  S
C2923      H2929   1.109       .  S
C2926      H2930   1.107       .  S
C2926      H2931   1.110       .  S
C2926      H2932   1.111       .  S
C2933      H2940   1.084       .  S
C2933      C2934   1.402       .  A
C2933      C2938   1.413       .  A
C2934      C2935   1.422       .  A
C2935      C2942   1.508       .  S
C2935      C2936   1.412       .  A
C2936      H2941   1.083       .  S
C2936      C2937   1.404       .  A
C2937      C2938   1.424       .  A
C2938      C2939   1.508       .  S
C2939      H2943   1.111       .  S
C2939      H2944   1.110       .  S
C2939      H2945   1.108       .  S
C2942      H2946   1.109       .  S
C2942      H2947   1.111       .  S
C2942      H2948   1.111       .  S
C2949      H2956   1.082       .  S
C2949      C2950   1.402       .  A
C2949      C2954   1.405       .  A
C2950      C2951   1.412       .  A
C2951      C2958   1.508       .  S
C2951      C2952   1.402       .  A
C2952      H2957   1.084       .  S
C2952      C2953   1.400       .  A
C2953      C2954   1.414       .  A
C2954      C2955   1.507       .  S
C2955      H2959   1.111       .  S
C2955      H2960   1.111       .  S
C2955      H2961   1.109       .  S
C2958      H2962   1.110       .  S
C2958      H2963   1.108       .  S
C2958      H2964   1.111       .  S
C2965      H2972   1.084       .  S
C2965      C2966   1.400       .  A
C2965      C2970   1.407       .  A
C2966      C2967   1.413       .  A
C2967      C2974   1.508       .  S
C2967      C2968   1.403       .  A
C2968      H2973   1.083       .  S
C2968      C2969   1.405       .  A
C2969      C2970   1.417       .  A
C2970      C2971   1.507       .  S
C2971      H2975   1.111       .  S
C2971      H2976   1.109       .  S
C2971      H2977   1.110       .  S
C2974      H2978   1.108       .  S
C2974      H2979   1.110       .  S
C2974      H2980   1.111       .  S
C2981      C2986   1.406       .  A
C2983      C2984   1.415       .  A
C2984      H2989   1.083       .  S
C2984      C2985   1.410       .  A
C2985      C2986   1.424       .  A
C2986      C2987   1.509       .  S
C2987      H2991   1.111       .  S
C2987      H2992   1.109       .  S
C2987      H2993   1.109   1_554  S
C2990      H2994   1.110       .  S
C2997      H3004   1.084       .  S
C2997      C2998   1.400       .  A
C2997      C3002   1.408       .  A
C2998      C2999   1.422       .  A
C2999      C3006   1.507       .  S
C2999      C3000   1.410       .  A
C3000      H3005   1.084       .  S
C3000      C3001   1.404       .  A
C3001      C3002   1.413       .  A
C3002      C3003   1.488       .  S
C3003      H3007   1.111       .  S
C3003      H3008   1.109       .  S
C3003      H3009   1.105       .  S
C3006      H3011   1.109       .  S
C3006      H3012   1.111       .  S
C3013      H3020   1.085       .  S
C3013      C3014   1.408   1_565  A
C3013      C3018   1.392       .  A
C3014      C3015   1.412       .  A
C3015      C3022   1.503       .  S
C3015      C3016   1.419       .  A
C3016      H4089   1.083       .  S
C3016      C4085   1.411       .  A
C3017      C4084   1.411       .  A
C3017      C4086   1.410       .  A
C3018      C3019   1.515       .  S
C3018      C4085   1.411   1_565  A
C3019      H3023   1.107       .  S
C3019      H4092   1.108       .  S
C3019      H3025   1.111       .  S
H3021      C4084   1.083       .  S
C3022      H3026   1.110       .  S
C3022      H3027   1.111       .  S
C3022      H3028   1.111       .  S
H3024      C4087   1.108       .  S
C3029      H3036   1.084       .  S
C3029      C4098   1.403       .  A
C3029      C3034   1.401       .  A
C3030      C4097   1.403   1_545  A
C3030      C4099   1.411       .  A
C3031      C4106   1.505       .  S
C3031      C4098   1.411       .  A
C3031      C3032   1.417       .  A
C3032      H3037   1.083       .  S
C3032      C3033   1.410       .  A
C3033      C3034   1.416       .  A
C3034      C3035   1.510       .  S
C3035      H3039   1.111       .  S
C3035      H3040   1.108       .  S
C3035      H3041   1.109       .  S
C3038      C4099   1.505       .  S
C3038      H3042   1.110       .  S
C3038      H4111   1.110       .  S
C3038      H4112   1.111       .  S
H3043      C4106   1.110       .  S
H3044      C4106   1.111       .  S
C3045      H3052   1.084       .  S
C3045      C3046   1.400       .  A
C3045      C3050   1.401       .  A
C3047      C3054   1.506       .  S
C3047      C3048   1.402       .  A
C3048      H3053   1.085       .  S
C3049      C3050   1.420       .  A
C3050      C3051   1.509       .  S
C3051      H3055   1.111       .  S
C3051      H3056   1.110       .  S
C3051      H3057   1.110       .  S
C3054      H3058   1.109       .  S
C3054      H3059   1.107       .  S
C3054      H3060   1.111       .  S
C3061      H3068   1.084       .  S
C3061      C3062   1.407   1_655  A
C3061      C3066   1.410       .  A
C3062      C3063   1.416       .  A
C3063      C3064   1.402       .  A
C3064      C3065   1.402   1_455  A
C3065      C3066   1.411       .  A
C3066      C3067   1.506       .  S
C3067      H3071   1.111       .  S
C3067      H3072   1.110       .  S
C3067      H3073   1.111   1_655  S
C3070      H3075   1.107       .  S
C3070      H3076   1.111       .  S
C3077      H3084   1.077       .  S
C3077      C3078   1.413       .  A
C3077      C3082   1.395       .  A
C3078      C3079   1.431       .  A
C3079      C3086   1.509       .  S
C3079      C3080   1.403       .  A
C3080      H3085   1.084       .  S
C3080      C3081   1.399       .  A
C3081      C3082   1.409       .  A
C3082      C3083   1.508       .  S
C3083      H3087   1.111       .  S
C3083      H3088   1.110       .  S
C3083      H3089   1.110       .  S
C3086      H3090   1.103       .  S
C3086      H3091   1.110       .  S
C3086      H3092   1.111       .  S
C3093      H3100   1.079       .  S
C3093      C3094   1.413       .  A
C3093      C3098   1.397       .  A
C3094      C3095   1.442       .  A
C3095      C3102   1.520       .  S
C3095      C3096   1.389       .  A
C3096      H3101   1.087       .  S
C3096      C3097   1.389       .  A
C3097      C3098   1.411       .  A
C3098      C3099   1.506       .  S
C3099      H3103   1.111       .  S
C3099      H3104   1.108       .  S
C3099      H3105   1.110       .  S
C3102      H3106   1.097       .  S
C3102      H3107   1.109       .  S
C3102      H3108   1.112       .  S
C3109      H3116   1.084       .  S
C3109      C3114   1.402       .  A
C3110      C3111   1.394   1_556  A
C3111      C3118   1.503       .  S
C3112      H3117   1.075       .  S
C3112      C3113   1.426       .  A
C3113      C3114   1.448       .  A
C3114      C3115   1.520       .  S
C3115      H3119   1.111       .  S
C3115      H3120   1.107       .  S
C3115      H3121   1.103       .  S
C3118      H3122   1.109       .  S
C3118      H3123   1.110   1_554  S
C3118      H3124   1.111       .  S
C3125      H3132   1.067       .  S
C3125      C3126   1.410       .  A
C3125      C3130   1.373       .  A
C3126      C3127   1.434       .  A
C3127      C3134   1.503       .  S
C3127      C3128   1.396       .  A
C3128      H3133   1.086       .  S
C3128      C3129   1.390       .  A
C3129      C3130   1.407       .  A
C3130      C3131   1.517       .  S
C3131      H3135   1.111       .  S
C3131      H3137   1.108       .  S
C3134      H3138   1.109       .  S
C3134      H3139   1.092       .  S
C3134      H3140   1.111       .  S
C3141      H3148   1.069       .  S
C3141      C3142   1.419       .  A
C3141      C3146   1.389       .  A
C3142      C3143   1.433       .  A
C3143      C3150   1.507       .  S
C3143      C3144   1.394       .  A
C3144      H3149   1.085       .  S
C3144      C3145   1.393       .  A
C3145      C3146   1.401       .  A
C3146      C3147   1.508       .  S
C3147      H3151   1.111       .  S
C3147      H3152   1.109       .  S
C3147      H3153   1.110       .  S
C3150      H3154   1.104       .  S
C3150      H3155   1.111       .  S
C3150      H3156   1.097       .  S
C3157      H3164   1.077       .  S
C3157      C3158   1.411       .  A
C3157      C3162   1.387       .  A
C3158      C3159   1.450       .  A
C3159      C3166   1.513       .  S
C3159      C3160   1.421       .  A
C3160      H3165   1.083       .  S
C3160      C3161   1.402       .  A
C3161      C3162   1.400       .  A
C3162      C3163   1.505       .  S
C3163      H3167   1.110       .  S
C3163      H3168   1.111       .  S
C3163      H3169   1.109       .  S
C3166      H3170   1.109       .  S
C3166      H3171   1.102       .  S
C3166      H3172   1.111       .  S
C3173      H3180   1.065       .  S
C3173      C3174   1.425       .  A
C3173      C3178   1.387       .  A
C3174      C3175   1.454       .  A
C3175      C3182   1.508       .  S
C3175      C3176   1.405       .  A
C3176      H3181   1.085       .  S
C3176      C3177   1.386       .  A
C3177      C3178   1.388       .  A
C3178      C3179   1.511       .  S
C3179      H3183   1.111       .  S
C3179      H3184   1.110       .  S
C3179      H3185   1.107       .  S
C3182      H3186   1.083       .  S
C3182      H3187   1.111       .  S
C3182      H3188   1.111       .  S
C3189      H3196   1.061       .  S
C3189      C3190   1.422       .  A
C3189      C3194   1.393       .  A
C3190      C3191   1.421       .  A
C3191      C3198   1.504       .  S
C3191      C3192   1.405       .  A
C3192      H3197   1.084       .  S
C3192      C3193   1.408       .  A
C3193      C3194   1.394       .  A
C3194      C3195   1.507       .  S
C3195      H3199   1.111       .  S
C3195      H3200   1.110       .  S
C3195      H3201   1.110       .  S
C3198      H3202   1.110       .  S
C3198      H3203   1.106       .  S
C3198      H3204   1.111       .  S
C3205      C3676   1.555       .  S
C3205      C3692   1.577       .  S
C3205      C3708   1.589       .  S
C3205      C3724   1.572       .  S
C3206      C3612   1.559       .  S
C3206      C3628   1.552       .  S
C3206      C3647   1.555       .  S
C3206      C3660   1.548       .  S
C3207      N3225   1.372       .  A
C3207      C3244   1.440       .  S
C3207      C3535   1.491       .  S
N3208      N3225   1.337       .  A
N3208      N3230   1.313       .  A
C3209      N3234   1.332       .  A
C3209      C3247   1.459       .  S
H3210      C3251   1.081       .  S
C3211      N3235   1.355   1_565  A
C3211      C3215   1.480       .  S
C3211      H3240   1.081   1_565  S
Co3212     N3230   2.015       .  S
Co3212     N3754   2.066       .  S
N3213      C3251   1.343       .  A
N3213     Co3214   2.090   1_565  S
Co3214     N3217   2.050   1_545  S
C3215      N3787   1.342       .  A
C3215      C4101   1.488       .  S
N3216      N3223   1.321       .  A
N3216      N3246   1.314       .  A
N3217      N3769   1.318   1_564  A
N3217      N3253   1.316       .  A
N3218      C3247   1.341       .  A
N3218      N3228   1.311       .  A
H3219      C3244   1.082       .  S
N3220      N3241   1.319       .  A
N3220     Co3746   2.066   1_554  S
N3221      N3773   1.318   1_554  A
N3221      N3226   1.335       .  A
C3222      N3226   1.366       .  A
C3222      C3784   1.442   1_554  S
C3222      C3516   1.484       .  S
N3223      C3238   1.333       .  A
C3224      N3252   1.356       .  A
C3224      C3227   1.487       .  S
C3224      H3258   1.081       .  S
C3227      N3248   1.341       .  A
C3227      C3548   1.492       .  S
N3228      N3234   1.318       .  A
N3229      C3255   1.341       .  A
N3229      N3231   1.317   1_455  A
N3230      C3244   1.325       .  A
N3231      N3259   1.326       .  A
N3231     Co3249   2.077       .  S
H3232      C3255   1.080       .  S
H3233      C3250   1.082       .  S
N3235      N3751   1.318   1_545  A
N3236      N3248   1.313       .  A
N3236      N3252   1.316       .  A
N3236     Co3245   2.041       .  S
C3237      N3241   1.344       .  A
C3237      C3583   1.478       .  S
C3238      C3257   1.456       .  S
C3238      H3242   1.080       .  S
N3239      C3250   1.326       .  A
N3239      N3755   1.318       .  A
N3239     Co3249   2.039       .  S
C3243      N3259   1.349   1_455  A
C3243      C3255   1.465       .  S
C3243      C3596   1.484       .  S
N3246      C3257   1.350       .  A
C3247      C3663   1.432       .  S
Co3249    Cl3256   2.438       .  S
C3250      C3756   1.442       .  S
N3253      C3749   1.342       .  A
C3257      C3679   1.458       .  S
C3260      N3278   1.355       .  A
C3260      C3297   1.461       .  S
C3260      C3644   1.476       .  S
N3261      N3278   1.323       .  A
N3261      N3283   1.316       .  A
N3261     Co3832   2.065       .  S
C3262      N3287   1.347       .  A
C3262      C3300   1.466       .  S
C3262      H3307   1.081       .  S
H3263      C3304   1.081       .  S
C3264      N3288   1.355       .  A
C3264      C3268   1.481       .  S
C3264      H3293   1.081       .  S
Co3265     N3283   2.060       .  S
Co3265     N3273   2.107       .  S
Co3265     N3839   2.110       .  S
Co3265     N3281   2.064       .  S
Co3265    Cl3309   2.453       .  S
N3266      C3304   1.331       .  A
N3266      N3273   1.315       .  A
N3266     Co3267   2.047       .  S
Co3267     N3270   2.072       .  S
Co3267     N3287   2.101       .  S
Co3267     N3274   2.036       .  S
Co3267    Cl3309   2.422       .  S
C3268      N3306   1.342       .  A
C3268      C3471   1.503       .  S
N3269      N3276   1.319       .  A
N3269      N3299   1.323       .  A
N3269     Co3302   2.088       .  S
N3270      N3288   1.320       .  A
N3270      N3306   1.322       .  A
N3271      C3300   1.348       .  A
N3271      N3281   1.324       .  A
H3272      C3297   1.080       .  S
N3273      N3294   1.329       .  A
N3274      N3292   1.316       .  A
N3274      N3279   1.303       .  A
C3275      N3279   1.342       .  A
C3275      C3303   1.478       .  S
C3275      C3695   1.486       .  S
N3276      C3291   1.349       .  A
N3276     Co3832   2.097       .  S
C3277      N3305   1.350       .  A
C3277      C3280   1.474       .  S
C3277      H3311   1.081       .  S
C3280      N3301   1.349       .  A
C3280      C3452   1.508       .  S
N3281      N3287   1.318       .  A
N3282      C3308   1.331       .  A
N3282      N3284   1.320       .  A
N3282     Co3298   2.057       .  S
N3283      C3297   1.329       .  A
N3284      N3312   1.330       .  A
N3284     Co3836   2.115   1_554  S
H3285      C3308   1.081       .  S
H3286      C3303   1.081       .  S
N3288     Co3302   2.126       .  S
N3289      N3301   1.327       .  A
N3289      N3305   1.320       .  A
N3289     Co3298   2.091       .  S
C3290      N3294   1.357       .  A
C3290      C3304   1.448       .  S
C3290      C3484   1.471       .  S
C3291      C3310   1.469       .  S
C3291      H3295   1.082       .  S
N3292      C3303   1.358       .  A
N3292     Co3302   2.105       .  S
C3296      N3312   1.359       .  A
C3296      C3308   1.446       .  S
C3296      C3500   1.472       .  S
Co3298     N3795   2.065       .  S
Co3298     N3810   2.098       .  S
Co3298    Cl3843   2.439   1_554  S
N3299      C3310   1.351       .  A
C3300      C3532   1.495       .  S
Co3302     N3818   2.115       .  S
Co3302    Cl3309   2.464       .  S
N3305     Co3799   2.110   1_554  S
Cl3309    Co3832   2.439       .  S
C3310      C3519   1.503       .  S
C3313      N3331   1.343       .  A
C3313      C3350   1.463       .  S
C3313      C3487   1.471       .  S
N3314      N3331   1.322       .  A
N3314      N3336   1.322       .  A
N3314     Co3351   2.080       .  S
C3315      N3340   1.340       .  A
C3315      H3360   1.081       .  S
H3316      C3357   1.078       .  S
C3317      N3341   1.329       .  A
C3317      C3321   1.439       .  S
C3317      H3346   1.082       .  S
Co3318     N3336   2.091       .  S
Co3318     N3326   2.080       .  S
Co3318     N3358   2.051       .  S
Co3318     N3334   2.085       .  S
N3319      C3357   1.357       .  A
N3319      N3326   1.320       .  A
Co3320     N3323   2.114       .  S
Co3320     N3340   2.078       .  S
Co3320     N3327   2.089       .  S
Co3320    Cl3362   2.468       .  S
C3321      N3359   1.361       .  A
C3321      C3727   1.461       .  S
N3322      N3329   1.317   1_655  A
N3322      N3352   1.329       .  A
N3322     Co3355   2.102       .  S
N3323      N3341   1.322       .  A
N3323      N3359   1.325       .  A
N3324      C3353   1.350       .  A
N3324      N3334   1.324       .  A
H3325      C3350   1.081       .  S
N3326      N3347   1.326       .  A
N3327      N3345   1.321       .  A
N3327      N3332   1.323       .  A
C3328      N3332   1.346       .  A
C3328      C3356   1.465       .  S
C3328      C3503   1.485       .  S
C3330      N3358   1.336       .  A
C3330      C3333   1.449       .  S
C3330      H3364   1.080       .  S
C3333      N3354   1.354       .  A
C3333      C3631   1.464       .  S
N3335      C3361   1.352       .  A
N3335      N3337   1.315       .  A
N3336      C3350   1.344       .  A
N3337      N3365   1.323       .  A
N3337     Co3355   2.074       .  S
H3338      C3361   1.078       .  S
H3339      C3356   1.081       .  S
N3341     Co3355   2.045       .  S
N3342      N3354   1.315       .  A
N3342      N3358   1.316       .  A
N3342     Co3351   2.069       .  S
C3343      N3347   1.350       .  A
C3343      C3357   1.490       .  S
C3343      C3436   1.527       .  S
C3344      H3348   1.082       .  S
N3345      C3356   1.343       .  A
N3345     Co3355   2.090       .  S
C3349      N3365   1.351       .  A
C3349      C3361   1.486       .  S
C3349      C3423   1.518       .  S
N3352      C3363   1.356       .  A
C3353      C3580   1.476       .  S
Co3355    Cl3362   2.432       .  S
C3363      C3599   1.480       .  S
C3366      N3384   1.357       .  A
C3366      C3403   1.449       .  S
C3366      C3551   1.479       .  S
N3367      N3384   1.334       .  A
N3367      N3389   1.318       .  A
C3368      N3393   1.336       .  A
C3368      C3406   1.461       .  S
C3368      H3413   1.081       .  S
H3369      C3410   1.081       .  S
C3370      N3394   1.350       .  A
C3370      C3374   1.472       .  S
C3370      H3399   1.082       .  S
Co3371     N3411   2.130       .  S
Co3371     N3387   2.064       .  S
N3372      C3410   1.349       .  A
N3372      N3379   1.322   1_565  A
N3372     Co3373   2.112   1_565  S
Co3373     N3376   2.088   1_545  S
Co3373    Cl3415   2.456       .  S
C3374      N3412   1.351       .  A
C3374      C3455   1.501       .  S
N3375      N3382   1.319       .  A
N3375      N3405   1.326       .  A
N3375     Co3408   2.063       .  S
N3376      N3394   1.320       .  A
N3376      N3412   1.326       .  A
N3377      C3406   1.347       .  A
N3377      N3387   1.323       .  A
H3378      C3403   1.082       .  S
N3379      N3400   1.334   1_545  A
N3380      N3398   1.319       .  A
N3380      N3385   1.332       .  A
C3381      N3385   1.357       .  A
C3381      C3409   1.458       .  S
C3381      C3564   1.489       .  S
N3382      C3397   1.327       .  A
C3383      N3411   1.354       .  A
C3383      C3386   1.477       .  S
C3383      H3417   1.082       .  S
C3386      N3407   1.346       .  A
C3386      C3468   1.500       .  S
N3387      N3393   1.319       .  A
N3388      C3414   1.342       .  A
N3388      N3390   1.321       .  A
N3388     Co3404   2.093       .  S
N3389      C3403   1.327       .  A
N3390      N3418   1.333       .  A
H3391      C3414   1.080       .  S
H3392      C3409   1.082       .  S
N3394     Co3408   2.121       .  S
N3395      N3407   1.323       .  A
N3395      N3411   1.321       .  A
N3395     Co3404   2.077       .  S
C3396      N3400   1.357       .  A
C3396      C3410   1.466       .  S
C3396      C3439   1.509       .  S
C3397      C3416   1.455       .  S
C3397      H3401   1.080       .  S
N3398      C3409   1.334       .  A
C3402      N3418   1.358       .  A
C3402      C3414   1.459       .  S
C3402      C3420   1.498       .  S
N3405      C3416   1.346       .  A
C3406      C3615   1.466       .  S
Co3408    Cl3415   2.450   1_565  S
C3416      C3711   1.462       .  S
C3419      H3426   1.084       .  S
C3419      C3420   1.404       .  A
C3419      C3424   1.419       .  A
C3420      C3421   1.415       .  A
C3421      C3428   1.510       .  S
C3421      C3422   1.408       .  A
C3422      H3427   1.084       .  S
C3422      C3423   1.412       .  A
C3423      C3424   1.426       .  A
C3424      C3425   1.502       .  S
C3425      H3429   1.111       .  S
C3425      H3430   1.109       .  S
C3425      H3431   1.110       .  S
C3428      H3432   1.108       .  S
C3428      H3433   1.110       .  S
C3428      H3434   1.111       .  S
C3435      H3442   1.084       .  S
C3435      C3436   1.414       .  A
C3435      C3440   1.416       .  A
C3436      C3437   1.426       .  A
C3437      C3444   1.503       .  S
C3437      C3438   1.423       .  A
C3438      H3443   1.084       .  S
C3438      C3439   1.406       .  A
C3439      C3440   1.414       .  A
C3440      C3441   1.508       .  S
C3441      H3445   1.111       .  S
C3441      H3446   1.111       .  S
C3441      H3447   1.110       .  S
C3444      H3448   1.109       .  S
C3444      H3449   1.110       .  S
C3444      H3450   1.111       .  S
C3451      H3458   1.082       .  S
C3451      C3452   1.407       .  A
C3451      C3456   1.412       .  A
C3452      C3453   1.423       .  A
C3453      C3460   1.507       .  S
C3453      C3454   1.414       .  A
C3454      H3459   1.084       .  S
C3454      C3455   1.404       .  A
C3455      C3456   1.420       .  A
C3456      C3457   1.508       .  S
C3457      H3461   1.111       .  S
C3457      H3462   1.111       .  S
C3457      H3463   1.109       .  S
C3460      H3464   1.107       .  S
C3460      H3465   1.110       .  S
C3460      H3466   1.111       .  S
C3467      H3474   1.084       .  S
C3467      C3468   1.402       .  A
C3467      C3472   1.413       .  A
C3468      C3469   1.422       .  A
C3469      C3476   1.508       .  S
C3469      C3470   1.412       .  A
C3470      H3475   1.083       .  S
C3470      C3471   1.404       .  A
C3471      C3472   1.424       .  A
C3472      C3473   1.508       .  S
C3473      H3477   1.111       .  S
C3473      H3478   1.110       .  S
C3473      H3479   1.108       .  S
C3476      H3480   1.109       .  S
C3476      H3481   1.111       .  S
C3476      H3482   1.111       .  S
C3483      H3490   1.082       .  S
C3483      C3484   1.402       .  A
C3483      C3488   1.405       .  A
C3484      C3485   1.412       .  A
C3485      C3492   1.508       .  S
C3485      C3486   1.402       .  A
C3486      H3491   1.084       .  S
C3486      C3487   1.400       .  A
C3487      C3488   1.414       .  A
C3488      C3489   1.507       .  S
C3489      H3493   1.111       .  S
C3489      H3494   1.111       .  S
C3489      H3495   1.109       .  S
C3492      H3496   1.110       .  S
C3492      H3497   1.108       .  S
C3492      H3498   1.111       .  S
C3499      H3506   1.084       .  S
C3499      C3500   1.400       .  A
C3499      C3504   1.407       .  A
C3500      C3501   1.413       .  A
C3501      C3508   1.508       .  S
C3501      C3502   1.403       .  A
C3502      H3507   1.083       .  S
C3502      C3503   1.405       .  A
C3503      C3504   1.417       .  A
C3504      C3505   1.507       .  S
C3505      H3509   1.111       .  S
C3505      H3510   1.109       .  S
C3505      H3511   1.110       .  S
C3508      H3512   1.108       .  S
C3508      H3513   1.110       .  S
C3508      H3514   1.111       .  S
C3515      H4056   1.085       .  S
C3515      C4050   1.400       .  A
C3515      C3520   1.406       .  A
C3516      C4049   1.400       .  A
C3516      C4051   1.411       .  A
C3517      C4058   1.503       .  S
C3517      C4050   1.411       .  A
C3517      C3518   1.415       .  A
C3518      H3523   1.083       .  S
C3518      C3519   1.410       .  A
C3519      C3520   1.424       .  A
C3520      C3521   1.509       .  S
C3521      H3525   1.111       .  S
C3521      H3526   1.109       .  S
C3521      H3527   1.109       .  S
H3522      C4049   1.085       .  S
C3524      C4051   1.503       .  S
C3524      H3528   1.110       .  S
C3524      H4063   1.110       .  S
C3524      H4064   1.104       .  S
H3529      C4058   1.110       .  S
H3530      C4058   1.104       .  S
C3531      H3538   1.084       .  S
C3531      C3532   1.400       .  A
C3531      C3536   1.408       .  A
C3532      C3533   1.422       .  A
C3533      C3540   1.507       .  S
C3533      C3534   1.410       .  A
C3534      H3539   1.084       .  S
C3534      C3535   1.404       .  A
C3535      C3536   1.413       .  A
C3536      C3537   1.488       .  S
C3537      H3541   1.111       .  S
C3537      H3542   1.109       .  S
C3537      H3543   1.105       .  S
C3540      H4078   1.109       .  S
C3540      H3545   1.109       .  S
C3540      H3546   1.111       .  S
H3544      C4074   1.109       .  S
C3547      H3554   1.085       .  S
C3547      C3548   1.408       .  A
C3547      C3552   1.392       .  A
C3548      C3549   1.412       .  A
C3549      C3556   1.503       .  S
C3549      C3550   1.419       .  A
C3552      C3553   1.515       .  S
C3553      H3557   1.107       .  S
C3553      H3559   1.111       .  S
C3556      H3560   1.110       .  S
C3556      H3561   1.111       .  S
C3556      H3562   1.111       .  S
C3563      H3570   1.084       .  S
C3563      C3568   1.401       .  A
C3565      C3566   1.417       .  A
C3566      H3571   1.083       .  S
C3566      C3567   1.410   1_545  A
C3567      C3749   1.488       .  S
C3567      C3568   1.416       .  A
C3568      C3569   1.510       .  S
C3569      H3573   1.111       .  S
C3569      H3574   1.108       .  S
C3569      H3575   1.109       .  S
C3572      H3576   1.110       .  S
C3579      H3586   1.084       .  S
C3579      C3580   1.400       .  A
C3579      C3584   1.401       .  A
C3581      C3588   1.506       .  S
C3581      C3582   1.402       .  A
C3582      H3587   1.085       .  S
C3583      C3584   1.421       .  A
C3584      C3585   1.510       .  S
C3585      H3589   1.111       .  S
C3585      H3590   1.110       .  S
C3585      H3591   1.110       .  S
C3588      H3592   1.109       .  S
C3588      H3593   1.107       .  S
C3588      H3594   1.111       .  S
C3595      H3602   1.084       .  S
C3595      C3596   1.407   1_655  A
C3595      C3600   1.410       .  A
C3596      C3597   1.416       .  A
C3597      C3598   1.402       .  A
C3598      C3599   1.402   1_455  A
C3599      C3600   1.411       .  A
C3600      C3601   1.506       .  S
C3601      H3605   1.111       .  S
C3601      H3606   1.110       .  S
C3601      H3607   1.111   1_655  S
C3604      H3609   1.107       .  S
C3604      H3610   1.111       .  S
C3611      H3618   1.077       .  S
C3611      C3612   1.413       .  A
C3611      C3616   1.395       .  A
C3612      C3613   1.431       .  A
C3613      C3620   1.509       .  S
C3613      C3614   1.403       .  A
C3614      H3619   1.084       .  S
C3614      C3615   1.399       .  A
C3615      C3616   1.409       .  A
C3616      C3617   1.508       .  S
C3617      H3621   1.111       .  S
C3617      H3622   1.110       .  S
C3617      H3623   1.110       .  S
C3620      H3624   1.103       .  S
C3620      H3625   1.110       .  S
C3620      H3626   1.111       .  S
C3627      H3634   1.079       .  S
C3627      C3628   1.413       .  A
C3627      C3632   1.397       .  A
C3628      C3629   1.442       .  A
C3629      C3636   1.520       .  S
C3629      C3630   1.389       .  A
C3630      H3635   1.087       .  S
C3630      C3631   1.389       .  A
C3631      C3632   1.410       .  A
C3632      C3633   1.506       .  S
C3633      H3637   1.111       .  S
C3633      H3638   1.108       .  S
C3633      H3639   1.110       .  S
C3636      H3640   1.097       .  S
C3636      H3641   1.109       .  S
C3636      H3642   1.112       .  S
C3643      H3650   1.084       .  S
C3643      C4178   1.391       .  A
C3643      C3648   1.402   1_556  A
C3644      C4177   1.391       .  A
C3644      C3645   1.394       .  A
C3645      C3652   1.503       .  S
C3645      C4180   1.397       .  A
C3646      H3651   1.075       .  S
C3646      C4179   1.397       .  A
C3646      C3647   1.426       .  A
C3647      C3648   1.449       .  A
C3648      C3649   1.520       .  S
C3649      H3653   1.111   1_554  S
C3649      H3654   1.107       .  S
C3649      H3655   1.103       .  S
C3652      H3656   1.109       .  S
C3652      H3657   1.110       .  S
C3652      H3658   1.111       .  S
C3659      H3666   1.067       .  S
C3659      C3660   1.410       .  A
C3659      C3664   1.373       .  A
C3660      C3661   1.434       .  A
C3661      C3668   1.503       .  S
C3661      C3662   1.397       .  A
C3662      H3667   1.086       .  S
C3662      C3663   1.390       .  A
C3663      C3664   1.407       .  A
C3664      C3665   1.517       .  S
C3665      H3669   1.111       .  S
C3665      H3671   1.108       .  S
C3668      H3672   1.109       .  S
C3668      H3673   1.093       .  S
C3668      H3674   1.111       .  S
C3675      H3682   1.069       .  S
C3675      C3676   1.419       .  A
C3675      C3680   1.389       .  A
C3676      C3677   1.433       .  A
C3677      C3684   1.507       .  S
C3677      C3678   1.394       .  A
C3678      H3683   1.085       .  S
C3678      C3679   1.393       .  A
C3679      C3680   1.401       .  A
C3680      C3681   1.508       .  S
C3681      H3685   1.111       .  S
C3681      H3686   1.109       .  S
C3681      H3687   1.110       .  S
C3684      H3688   1.104       .  S
C3684      H3689   1.111       .  S
C3684      H3690   1.097       .  S
C3691      H3698   1.077       .  S
C3691      C3692   1.412       .  A
C3691      C3696   1.387       .  A
C3692      C3693   1.450       .  A
C3693      C3700   1.513       .  S
C3693      C3694   1.420       .  A
C3694      H3699   1.083       .  S
C3694      C3695   1.402       .  A
C3695      C3696   1.400       .  A
C3696      C3697   1.505       .  S
C3697      H3701   1.110       .  S
C3697      H3702   1.111       .  S
C3697      H3703   1.108       .  S
C3700      H3704   1.109       .  S
C3700      H3705   1.102       .  S
C3700      H3706   1.111       .  S
C3707      H3714   1.065       .  S
C3707      C3708   1.425       .  A
C3707      C3712   1.388       .  A
C3708      C3709   1.455       .  A
C3709      C3716   1.508       .  S
C3709      C3710   1.405       .  A
C3710      H3715   1.085       .  S
C3710      C3711   1.386       .  A
C3711      C3712   1.389       .  A
C3712      C3713   1.511       .  S
C3713      H3717   1.111       .  S
C3713      H3718   1.110       .  S
C3713      H3719   1.107       .  S
C3716      H3720   1.083       .  S
C3716      H3721   1.111       .  S
C3716      H3722   1.111       .  S
C3723      H3730   1.060       .  S
C3723      C3724   1.422       .  A
C3723      C3728   1.393       .  A
C3724      C3725   1.421       .  A
C3725      C3732   1.504       .  S
C3725      C3726   1.405       .  A
C3726      H3731   1.084       .  S
C3726      C3727   1.408       .  A
C3727      C3728   1.394       .  A
C3728      C3729   1.507       .  S
C3729      H3733   1.111       .  S
C3729      H3734   1.110       .  S
C3729      H3735   1.110       .  S
C3732      H3736   1.110       .  S
C3732      H3737   1.106       .  S
C3732      H3738   1.111       .  S
C3739      C4210   1.555       .  S
C3739      C4226   1.577       .  S
C3739      C4242   1.589       .  S
C3739      C4258   1.572       .  S
C3740      C4146   1.559       .  S
C3740      C4162   1.552       .  S
C3740      C4181   1.555       .  S
C3740      C4194   1.548       .  S
C3741      N3759   1.372       .  A
C3741      C3778   1.440       .  S
C3741      C4069   1.492       .  S
N3742      N3759   1.337       .  A
N3742      N3764   1.313       .  A
C3743      N3768   1.332       .  A
C3743      C3781   1.459       .  S
H3744      C3785   1.081       .  S
C3745      N3769   1.355   1_565  A
C3745      C3749   1.480   1_556  S
C3745      H3774   1.081   1_565  S
Co3746     N3764   2.014       .  S
N3747      C3785   1.343       .  A
N3747     Co3748   2.090   1_565  S
Co3748     N3751   2.050   1_545  S
N3750      N3757   1.321       .  A
N3750      N3780   1.314       .  A
N3751      N3787   1.316       .  A
N3752      C3781   1.341       .  A
N3752      N3762   1.311       .  A
H3753      C3778   1.082       .  S
N3754      N3775   1.319       .  A
N3755      N3760   1.335       .  A
C3756      N3760   1.366       .  A
C3756      C4050   1.484       .  S
N3757      C3772   1.333       .  A
C3758      N3786   1.356       .  A
C3758      C3761   1.487       .  S
C3758      H3792   1.081       .  S
C3761      N3782   1.341       .  A
C3761      C4082   1.492       .  S
N3762      N3768   1.319       .  A
N3763      C3789   1.341       .  A
N3763      N3765   1.317   1_455  A
N3764      C3778   1.325       .  A
N3765      N3793   1.326       .  A
N3765     Co3783   2.076       .  S
H3766      C3789   1.080       .  S
H3767      C3784   1.082       .  S
N3770      N3782   1.313       .  A
N3770      N3786   1.316       .  A
N3770     Co3779   2.041       .  S
C3771      N3775   1.344       .  A
C3771      C4117   1.479       .  S
C3772      C3791   1.456       .  S
C3772      H3776   1.080       .  S
N3773      C3784   1.326       .  A
N3773     Co3783   2.039       .  S
C3777      N3793   1.349   1_455  A
C3777      C3789   1.465       .  S
C3777      C4130   1.484       .  S
N3780      C3791   1.350       .  A
C3781      C4197   1.432       .  S
Co3783    Cl3790   2.439       .  S
C3791      C4213   1.458       .  S
C3794      N3812   1.355   1_556  A
C3794      C3831   1.461       .  S
C3794      C4178   1.476       .  S
N3795      N3812   1.323       .  A
N3795      N3817   1.316   1_554  A
C3796      N3821   1.347       .  A
C3796      C3834   1.466       .  S
C3796      H3841   1.081       .  S
H3797      C3838   1.081       .  S
C3798      N3822   1.355       .  A
C3798      C3802   1.481       .  S
C3798      H3827   1.081       .  S
Co3799     N3817   2.060       .  S
Co3799     N3807   2.107       .  S
Co3799     N3815   2.065       .  S
Co3799    Cl3843   2.453       .  S
N3800      C3838   1.331       .  A
N3800      N3807   1.315       .  A
N3800     Co3801   2.047       .  S
Co3801     N3804   2.072       .  S
Co3801     N3821   2.101       .  S
Co3801     N3808   2.036       .  S
Co3801    Cl3843   2.422       .  S
C3802      N3840   1.342       .  A
C3802      C4005   1.503       .  S
N3803      N3810   1.319   1_556  A
N3803      N3833   1.323       .  A
N3803     Co3836   2.088       .  S
N3804      N3822   1.320       .  A
N3804      N3840   1.322       .  A
N3805      C3834   1.348       .  A
N3805      N3815   1.324       .  A
H3806      C3831   1.080       .  S
N3807      N3828   1.329       .  A
N3808      N3826   1.316       .  A
N3808      N3813   1.303       .  A
C3809      N3813   1.342       .  A
C3809      C3837   1.478       .  S
C3809      C4229   1.486       .  S
N3810      C3825   1.349       .  A
C3811      N3839   1.350       .  A
C3811      C3814   1.474       .  S
C3811      H3845   1.081       .  S
C3814      N3835   1.349       .  A
C3814      C3986   1.508       .  S
N3815      N3821   1.318       .  A
N3816      C3842   1.331       .  A
N3816      N3818   1.320       .  A
N3816     Co3832   2.057       .  S
N3817      C3831   1.329       .  A
N3818      N3846   1.330       .  A
H3819      C3842   1.081       .  S
H3820      C3837   1.081       .  S
N3822     Co3836   2.126       .  S
N3823      N3835   1.327       .  A
N3823      N3839   1.320       .  A
N3823     Co3832   2.091       .  S
C3824      N3828   1.357       .  A
C3824      C3838   1.448       .  S
C3824      C4018   1.471       .  S
C3825      C3844   1.469       .  S
C3825      H3829   1.082       .  S
N3826      C3837   1.358       .  A
N3826     Co3836   2.105       .  S
C3830      N3846   1.359       .  A
C3830      C3842   1.446       .  S
C3830      C4034   1.472       .  S
N3833      C3844   1.351   1_556  A
C3834      C4066   1.495       .  S
Co3836    Cl3843   2.464       .  S
C3844      C4053   1.503       .  S
C3847      N3865   1.343       .  A
C3847      C3884   1.463       .  S
C3847      C4021   1.471       .  S
N3848      N3865   1.322       .  A
N3848      N3870   1.322       .  A
N3848     Co3885   2.080       .  S
C3849      N3874   1.340       .  A
C3849      H3894   1.081       .  S
H3850      C3891   1.078       .  S
C3851      N3875   1.328       .  A
C3851      C3855   1.439       .  S
C3851      H3880   1.082       .  S
Co3852     N3870   2.091       .  S
Co3852     N3860   2.080       .  S
Co3852     N3892   2.051       .  S
Co3852     N3868   2.086       .  S
N3853      C3891   1.357       .  A
N3853      N3860   1.320       .  A
Co3854     N3857   2.114       .  S
Co3854     N3874   2.078       .  S
Co3854     N3861   2.089       .  S
Co3854    Cl3896   2.468       .  S
C3855      N3893   1.361       .  A
C3855      C4261   1.461       .  S
N3856      N3863   1.317   1_655  A
N3856      N3886   1.329       .  A
N3856     Co3889   2.102       .  S
N3857      N3875   1.322       .  A
N3857      N3893   1.325       .  A
N3858      C3887   1.350       .  A
N3858      N3868   1.324       .  A
H3859      C3884   1.081       .  S
N3860      N3881   1.326       .  A
N3861      N3879   1.321       .  A
N3861      N3866   1.323       .  A
C3862      N3866   1.346       .  A
C3862      C3890   1.465       .  S
C3862      C4037   1.485       .  S
C3864      N3892   1.336       .  A
C3864      C3867   1.449       .  S
C3864      H3898   1.080       .  S
C3867      N3888   1.354       .  A
C3867      C4165   1.464       .  S
N3869      C3895   1.352       .  A
N3869      N3871   1.315       .  A
N3870      C3884   1.344       .  A
N3871      N3899   1.323       .  A
N3871     Co3889   2.074       .  S
H3872      C3895   1.078       .  S
H3873      C3890   1.081       .  S
N3875     Co3889   2.045       .  S
N3876      N3888   1.315       .  A
N3876      N3892   1.316       .  A
N3876     Co3885   2.069       .  S
C3877      N3881   1.350       .  A
C3877      C3891   1.490       .  S
C3877      C3970   1.527       .  S
C3878      H3882   1.082       .  S
N3879      C3890   1.343       .  A
N3879     Co3889   2.090       .  S
C3883      N3899   1.351       .  A
C3883      C3895   1.486       .  S
C3883      C3957   1.518       .  S
N3886      C3897   1.356       .  A
C3887      C4114   1.476       .  S
Co3889    Cl3896   2.432       .  S
C3897      C4133   1.480       .  S
C3900      N3918   1.357       .  A
C3900      C3937   1.449       .  S
C3900      C4085   1.480       .  S
N3901      N3918   1.334       .  A
N3901      N3923   1.318       .  A
C3902      N3927   1.336       .  A
C3902      C3940   1.461       .  S
C3902      H3947   1.081       .  S
H3903      C3944   1.081       .  S
C3904      N3928   1.350       .  A
C3904      C3908   1.472       .  S
C3904      H3933   1.082       .  S
Co3905     N3945   2.130       .  S
Co3905     N3921   2.063       .  S
N3906      C3944   1.349       .  A
N3906      N3913   1.322   1_565  A
N3906     Co3907   2.112   1_565  S
Co3907     N3910   2.088   1_545  S
Co3907    Cl3949   2.456       .  S
C3908      N3946   1.351       .  A
C3908      C3989   1.501       .  S
N3909      N3916   1.319       .  A
N3909      N3939   1.326       .  A
N3909     Co3942   2.063       .  S
N3910      N3928   1.320       .  A
N3910      N3946   1.326       .  A
N3911      C3940   1.347       .  A
N3911      N3921   1.323       .  A
H3912      C3937   1.082       .  S
N3913      N3934   1.334   1_545  A
N3914      N3932   1.319       .  A
N3914      N3919   1.332       .  A
C3915      N3919   1.357       .  A
C3915      C3943   1.458       .  S
C3915      C4098   1.489       .  S
N3916      C3931   1.327       .  A
C3917      N3945   1.354       .  A
C3917      C3920   1.477       .  S
C3917      H3951   1.082       .  S
C3920      N3941   1.346       .  A
C3920      C4002   1.500       .  S
N3921      N3927   1.319       .  A
N3922      C3948   1.342       .  A
N3922      N3924   1.321       .  A
N3922     Co3938   2.093       .  S
N3923      C3937   1.327       .  A
N3924      N3952   1.333       .  A
H3925      C3948   1.080       .  S
H3926      C3943   1.082       .  S
N3928     Co3942   2.121       .  S
N3929      N3941   1.323       .  A
N3929      N3945   1.321       .  A
N3929     Co3938   2.077       .  S
C3930      N3934   1.357       .  A
C3930      C3944   1.466       .  S
C3930      C3973   1.509       .  S
C3931      C3950   1.455       .  S
C3931      H3935   1.080       .  S
N3932      C3943   1.334       .  A
C3936      N3952   1.358       .  A
C3936      C3948   1.459       .  S
C3936      C3954   1.498       .  S
N3939      C3950   1.346       .  A
C3940      C4149   1.466       .  S
Co3942    Cl3949   2.450   1_565  S
C3950      C4245   1.462       .  S
C3953      H3960   1.084       .  S
C3953      C3954   1.404       .  A
C3953      C3958   1.419       .  A
C3954      C3955   1.415       .  A
C3955      C3962   1.510       .  S
C3955      C3956   1.408       .  A
C3956      H3961   1.084       .  S
C3956      C3957   1.412       .  A
C3957      C3958   1.426       .  A
C3958      C3959   1.502       .  S
C3959      H3963   1.111       .  S
C3959      H3964   1.109       .  S
C3959      H3965   1.110       .  S
C3962      H3966   1.108       .  S
C3962      H3967   1.110       .  S
C3962      H3968   1.111       .  S
C3969      H3976   1.084       .  S
C3969      C3970   1.414       .  A
C3969      C3974   1.416       .  A
C3970      C3971   1.426       .  A
C3971      C3978   1.503       .  S
C3971      C3972   1.423       .  A
C3972      H3977   1.084       .  S
C3972      C3973   1.406       .  A
C3973      C3974   1.415       .  A
C3974      C3975   1.508       .  S
C3975      H3979   1.111       .  S
C3975      H3980   1.111       .  S
C3975      H3981   1.110       .  S
C3978      H3982   1.109       .  S
C3978      H3983   1.110       .  S
C3978      H3984   1.111       .  S
C3985      H3992   1.082       .  S
C3985      C3986   1.407       .  A
C3985      C3990   1.412       .  A
C3986      C3987   1.423       .  A
C3987      C3994   1.507       .  S
C3987      C3988   1.414       .  A
C3988      H3993   1.084       .  S
C3988      C3989   1.404       .  A
C3989      C3990   1.420       .  A
C3990      C3991   1.508       .  S
C3991      H3995   1.111       .  S
C3991      H3996   1.111       .  S
C3991      H3997   1.109       .  S
C3994      H3998   1.107       .  S
C3994      H3999   1.110       .  S
C3994      H4000   1.111       .  S
C4001      H4008   1.084       .  S
C4001      C4002   1.402       .  A
C4001      C4006   1.413       .  A
C4002      C4003   1.422       .  A
C4003      C4010   1.508       .  S
C4003      C4004   1.412       .  A
C4004      H4009   1.083       .  S
C4004      C4005   1.404       .  A
C4005      C4006   1.424       .  A
C4006      C4007   1.508       .  S
C4007      H4011   1.111       .  S
C4007      H4012   1.110       .  S
C4007      H4013   1.108       .  S
C4010      H4014   1.109       .  S
C4010      H4015   1.111       .  S
C4010      H4016   1.111       .  S
C4017      H4024   1.082       .  S
C4017      C4018   1.402       .  A
C4017      C4022   1.405       .  A
C4018      C4019   1.412       .  A
C4019      C4026   1.508       .  S
C4019      C4020   1.402       .  A
C4020      H4025   1.084       .  S
C4020      C4021   1.400       .  A
C4021      C4022   1.414       .  A
C4022      C4023   1.507       .  S
C4023      H4027   1.111       .  S
C4023      H4028   1.111       .  S
C4023      H4029   1.109       .  S
C4026      H4030   1.110       .  S
C4026      H4031   1.108       .  S
C4026      H4032   1.111       .  S
C4033      H4040   1.084       .  S
C4033      C4034   1.400       .  A
C4033      C4038   1.407       .  A
C4034      C4035   1.413       .  A
C4035      C4042   1.508       .  S
C4035      C4036   1.403       .  A
C4036      H4041   1.083       .  S
C4036      C4037   1.405       .  A
C4037      C4038   1.417       .  A
C4038      C4039   1.507       .  S
C4039      H4043   1.111       .  S
C4039      H4044   1.109       .  S
C4039      H4045   1.110       .  S
C4042      H4046   1.108       .  S
C4042      H4047   1.110       .  S
C4042      H4048   1.111       .  S
C4049      C4054   1.406       .  A
C4051      C4052   1.415       .  A
C4052      H4057   1.083       .  S
C4052      C4053   1.411       .  A
C4053      C4054   1.424       .  A
C4054      C4055   1.509       .  S
C4055      H4059   1.111       .  S
C4055      H4060   1.109       .  S
C4055      H4061   1.109   1_554  S
C4058      H4062   1.110       .  S
C4065      H4072   1.084       .  S
C4065      C4066   1.400       .  A
C4065      C4070   1.408       .  A
C4066      C4067   1.422       .  A
C4067      C4074   1.507       .  S
C4067      C4068   1.410       .  A
C4068      H4073   1.084       .  S
C4068      C4069   1.404       .  A
C4069      C4070   1.413       .  A
C4070      C4071   1.488       .  S
C4071      H4075   1.111       .  S
C4071      H4076   1.109       .  S
C4071      H4077   1.105       .  S
C4074      H4079   1.109       .  S
C4074      H4080   1.111       .  S
C4081      H4088   1.085       .  S
C4081      C4082   1.408       .  A
C4081      C4086   1.392       .  A
C4082      C4083   1.411       .  A
C4083      C4090   1.503       .  S
C4083      C4084   1.419       .  A
C4086      C4087   1.515       .  S
C4087      H4091   1.107       .  S
C4087      H4093   1.111       .  S
C4090      H4094   1.110       .  S
C4090      H4095   1.111       .  S
C4090      H4096   1.111       .  S
C4097      H4104   1.084       .  S
C4097      C4102   1.401       .  A
C4099      C4100   1.417       .  A
C4100      H4105   1.083       .  S
C4100      C4101   1.410   1_545  A
C4101      C4102   1.416       .  A
C4102      C4103   1.510       .  S
C4103      H4107   1.111       .  S
C4103      H4108   1.108       .  S
C4103      H4109   1.109       .  S
C4106      H4110   1.110       .  S
C4113      H4120   1.084       .  S
C4113      C4114   1.400       .  A
C4113      C4118   1.401       .  A
C4115      C4122   1.506       .  S
C4115      C4116   1.402       .  A
C4116      H4121   1.085       .  S
C4117      C4118   1.421       .  A
C4118      C4119   1.510       .  S
C4119      H4123   1.111       .  S
C4119      H4124   1.110       .  S
C4119      H4125   1.110       .  S
C4122      H4126   1.109       .  S
C4122      H4127   1.107       .  S
C4122      H4128   1.111       .  S
C4129      H4136   1.084       .  S
C4129      C4130   1.407   1_655  A
C4129      C4134   1.410       .  A
C4130      C4131   1.416       .  A
C4131      C4132   1.402       .  A
C4132      C4133   1.402   1_455  A
C4133      C4134   1.411       .  A
C4134      C4135   1.506       .  S
C4135      H4139   1.111       .  S
C4135      H4140   1.110       .  S
C4135      H4141   1.111   1_655  S
C4138      H4143   1.107       .  S
C4138      H4144   1.111       .  S
C4145      H4152   1.077       .  S
C4145      C4146   1.413       .  A
C4145      C4150   1.395       .  A
C4146      C4147   1.430       .  A
C4147      C4154   1.509       .  S
C4147      C4148   1.403       .  A
C4148      H4153   1.084       .  S
C4148      C4149   1.400       .  A
C4149      C4150   1.409       .  A
C4150      C4151   1.508       .  S
C4151      H4155   1.111       .  S
C4151      H4156   1.110       .  S
C4151      H4157   1.110       .  S
C4154      H4158   1.103       .  S
C4154      H4159   1.110       .  S
C4154      H4160   1.111       .  S
C4161      H4168   1.079       .  S
C4161      C4162   1.413       .  A
C4161      C4166   1.397       .  A
C4162      C4163   1.442       .  A
C4163      C4170   1.520       .  S
C4163      C4164   1.389       .  A
C4164      H4169   1.087       .  S
C4164      C4165   1.389       .  A
C4165      C4166   1.411       .  A
C4166      C4167   1.506       .  S
C4167      H4171   1.111       .  S
C4167      H4172   1.108       .  S
C4167      H4173   1.110       .  S
C4170      H4174   1.097       .  S
C4170      H4175   1.109       .  S
C4170      H4176   1.112       .  S
C4177      H4184   1.084       .  S
C4177      C4182   1.402       .  A
C4178      C4179   1.394   1_556  A
C4179      C4186   1.503       .  S
C4180      H4185   1.075       .  S
C4180      C4181   1.426       .  A
C4181      C4182   1.449       .  A
C4182      C4183   1.520       .  S
C4183      H4187   1.111       .  S
C4183      H4188   1.107       .  S
C4183      H4189   1.103       .  S
C4186      H4190   1.109       .  S
C4186      H4191   1.110   1_554  S
C4186      H4192   1.111       .  S
C4193      H4200   1.067       .  S
C4193      C4194   1.410       .  A
C4193      C4198   1.373       .  A
C4194      C4195   1.434       .  A
C4195      C4202   1.503       .  S
C4195      C4196   1.396       .  A
C4196      H4201   1.086       .  S
C4196      C4197   1.390       .  A
C4197      C4198   1.407       .  A
C4198      C4199   1.517       .  S
C4199      H4203   1.111       .  S
C4199      H4205   1.108       .  S
C4202      H4206   1.109       .  S
C4202      H4207   1.092       .  S
C4202      H4208   1.111       .  S
C4209      H4216   1.069       .  S
C4209      C4210   1.419       .  A
C4209      C4214   1.389       .  A
C4210      C4211   1.433       .  A
C4211      C4218   1.507       .  S
C4211      C4212   1.394       .  A
C4212      H4217   1.085       .  S
C4212      C4213   1.393       .  A
C4213      C4214   1.401       .  A
C4214      C4215   1.508       .  S
C4215      H4219   1.111       .  S
C4215      H4220   1.109       .  S
C4215      H4221   1.110       .  S
C4218      H4222   1.104       .  S
C4218      H4223   1.111       .  S
C4218      H4224   1.097       .  S
C4225      H4232   1.077       .  S
C4225      C4226   1.411       .  A
C4225      C4230   1.387       .  A
C4226      C4227   1.450       .  A
C4227      C4234   1.513       .  S
C4227      C4228   1.420       .  A
C4228      H4233   1.083       .  S
C4228      C4229   1.402       .  A
C4229      C4230   1.400       .  A
C4230      C4231   1.505       .  S
C4231      H4235   1.110       .  S
C4231      H4236   1.111       .  S
C4231      H4237   1.108       .  S
C4234      H4238   1.109       .  S
C4234      H4239   1.102       .  S
C4234      H4240   1.111       .  S
C4241      H4248   1.065       .  S
C4241      C4242   1.425       .  A
C4241      C4246   1.388       .  A
C4242      C4243   1.455       .  A
C4243      C4250   1.508       .  S
C4243      C4244   1.405       .  A
C4244      H4249   1.085       .  S
C4244      C4245   1.386       .  A
C4245      C4246   1.389       .  A
C4246      C4247   1.511       .  S
C4247      H4251   1.111       .  S
C4247      H4252   1.110       .  S
C4247      H4253   1.107       .  S
C4250      H4254   1.083       .  S
C4250      H4255   1.111       .  S
C4250      H4256   1.111       .  S
C4257      H4264   1.060       .  S
C4257      C4258   1.422       .  A
C4257      C4262   1.393       .  A
C4258      C4259   1.421       .  A
C4259      C4266   1.504       .  S
C4259      C4260   1.405       .  A
C4260      H4265   1.084       .  S
C4260      C4261   1.408       .  A
C4261      C4262   1.394       .  A
C4262      C4263   1.507       .  S
C4263      H4267   1.111       .  S
C4263      H4268   1.110       .  S
C4263      H4269   1.110       .  S
C4266      H4270   1.110       .  S
C4266      H4271   1.106       .  S
C4266      H4272   1.111       .  S
