geometry optimzed in LAMMPS
_audit_creation_date              2020-11-30 
_audit_creation_method            'lammps2cif' 
_symmetry_space_group_name_H-M    'P1' 
_symmetry_Int_Tables_number       1 
_symmetry_cell_setting            triclinic 
loop_ 
_symmetry_equiv_pos_as_xyz 
  x,y,z 
_cell_length_a                    38.491597372833446 
_cell_length_b                    38.64405095622777 
_cell_length_c                    38.6220171372718 
_cell_angle_alpha                 90.16342007885399 
_cell_angle_beta                  90.07860980192658 
_cell_angle_gamma                 89.70063876171162 
loop_ 
_atom_site_label 
_atom_site_type_symbol 
_atom_site_fract_x 
_atom_site_fract_y 
_atom_site_fract_z 
_atom_site_charge 
C1          C  0.36743984  0.37001922  0.49823312     0.03350
C2          C  0.37692603  0.33469878  0.49665319    -0.12800
C3          C  0.35139236  0.30905523  0.49718947     0.00850
C4          C  0.31645390  0.31857241  0.99925288    -0.11330
C5          C  0.30647146  0.35333791  0.00097896     0.03340
C6          C  0.33188225  0.37917776  0.00029908    -0.10750
H7          H  0.40400098  0.32697269  0.49557949     0.08930
H8          H  0.29684729  0.29851582  0.99996741     0.06460
H9          H  0.32386290  0.40605019  0.00188430     0.06310
C10         C  0.36659467  0.10116077  0.50245440     0.03350
C11         C  0.37625220  0.13610271  0.49871320    -0.12800
C12         C  0.35144063  0.16241628  0.50177897     0.00850
C13         C  0.31683046  0.15414026  0.50828573    -0.11330
C14         C  0.30653571  0.11979789  0.51318624     0.03340
C15         C  0.33147036  0.09321348  0.50961670    -0.10750
H16         H  0.40302179  0.14305694  0.49377941     0.08930
H17         H  0.29775860  0.17485070  0.50960626     0.06460
H18         H  0.32359570  0.06657901  0.51308215     0.06310
C19         C  0.09792055  0.10094659  0.50359449     0.03350
C20         C  0.13285747  0.09275625  0.51148585    -0.12800
C21         C  0.15817975  0.11886921  0.51297151     0.00850
C22         C  0.14819446  0.15322552  0.50686283    -0.11330
C23         C  0.11371361  0.16181407  0.49945811     0.03340
C24         C  0.08859632  0.13583330  0.49786952    -0.10750
H25         H  0.14036208  0.06622466  0.51668778     0.08930
H26         H  0.16748810  0.17357565  0.50756536     0.06460
H27         H  0.06196216  0.14292872  0.49202254     0.06310
C28         C  0.09809223  0.36937809  0.99519300     0.03350
C29         C  0.13356927  0.37797361  0.99756247    -0.12800
C30         C  0.15898366  0.35195828  0.99718423     0.00850
C31         C  0.14917084  0.31737671  0.99317154    -0.11330
C32         C  0.11418351  0.30836664  0.49079802     0.03340
C33         C  0.08864137  0.33425406  0.49197181    -0.10750
H34         H  0.14152529  0.40465525  0.00068853     0.08930
H35         H  0.16886950  0.29719638  0.99312394     0.06460
H36         H  0.06155558  0.32684371  0.49080575     0.06310
C37         C  0.36722827  0.48067236  0.38261401     0.03350
C38         C  0.33192536  0.47603028  0.39142016    -0.12800
C39         C  0.30663351  0.47223205  0.36545196     0.00850
C40         C  0.31682239  0.47310036  0.33076404    -0.11330
C41         C  0.35173980  0.47609137  0.32147775     0.03340
C42         C  0.37685137  0.48067511  0.34731970    -0.10750
H43         H  0.32413894  0.47466802  0.41831459     0.08930
H44         H  0.29733511  0.47069263  0.31059240     0.06460
H45         H  0.40383073  0.48320998  0.33983754     0.06310
C46         C  0.09760307  0.47377984  0.38290718     0.03350
C47         C  0.13332008  0.47138913  0.39117362    -0.12800
C48         C  0.15810274  0.46654941  0.36491346     0.00850
C49         C  0.14712178  0.46620816  0.33041568    -0.11330
C50         C  0.11184340  0.46664145  0.32149697     0.03340
C51         C  0.08712263  0.47006987  0.34797701    -0.10750
H52         H  0.14187175  0.47280029  0.41786987     0.08930
H53         H  0.16651822  0.46520908  0.31010146     0.06460
H54         H  0.05980095  0.46947872  0.34145146     0.06310
C55         C  0.09825173  0.48528710  0.11439483     0.03350
C56         C  0.08908849  0.47982863  0.14932730    -0.12800
C57         C  0.11471355  0.47876607  0.17508217     0.00850
C58         C  0.14937725  0.48484700  0.16610586    -0.11330
C59         C  0.15894078  0.49016985  0.13163720     0.03340
C60         C  0.13349009  0.49000682  0.10574889    -0.10750
H61         H  0.06228815  0.47530050  0.15645707     0.08930
H62         H  0.16927618  0.48447096  0.18601717     0.06460
H63         H  0.14124429  0.49382543  0.07907872     0.06310
C64         C  0.36738219  0.48418130  0.11383441     0.03350
C65         C  0.37697509  0.48043730  0.14887942    -0.12800
C66         C  0.35162464  0.48008342  0.17476854     0.00850
C67         C  0.31661139  0.48391139  0.16582360    -0.11330
C68         C  0.30659903  0.48778351  0.13123273     0.03340
C69         C  0.33191623  0.48768019  0.10521904    -0.10750
H70         H  0.40401048  0.47745565  0.15619039     0.08930
H71         H  0.29698060  0.48378503  0.18594906     0.06460
H72         H  0.32387955  0.49069922  0.07849634     0.06310
C73         C  0.48550818  0.10160163  0.38404447     0.03350
C74         C  0.48967204  0.13670283  0.39361187    -0.12800
C75         C  0.49249525  0.16239254  0.36819384     0.00850
C76         C  0.49012489  0.15323548  0.33323494    -0.11330
C77         C  0.48580174  0.11880591  0.32326533     0.03340
C78         C  0.48365116  0.09294827  0.34853263    -0.10750
H79         H  0.49141858  0.14410654  0.42062995     0.08930
H80         H  0.49170071  0.17312962  0.31354159     0.06460
H81         H  0.48035143  0.06631135  0.34041047     0.06310
C82         C  0.48802782  0.37008521  0.38348317     0.03350
C83         C  0.49354279  0.33522216  0.39293662    -0.12800
C84         C  0.49563673  0.30931248  0.36757292     0.00850
C85         C  0.49206785  0.31816751  0.33268832    -0.11330
C86         C  0.48565585  0.35243867  0.32281068     0.03340
C87         C  0.48429694  0.37846505  0.34812193    -0.10750
H88         H  0.49602669  0.32801102  0.41991983     0.08930
H89         H  0.49302481  0.29800786  0.31310546     0.06460
H90         H  0.47934919  0.40492039  0.34023270     0.06310
C91         C  0.48280459  0.10067714  0.11475289     0.03350
C92         C  0.48221599  0.09204436  0.15032104    -0.12800
C93         C  0.48021803  0.11817657  0.17559305     0.00850
C94         C  0.47930974  0.15280543  0.16548497    -0.11330
C95         C  0.48021766  0.16182731  0.13056830     0.03340
C96         C  0.48211854  0.13593124  0.10521612    -0.10750
H97         H  0.48277780  0.06523864  0.15844384     0.08930
H98         H  0.47800202  0.17298945  0.18503661     0.06460
H99         H  0.48256923  0.14341566  0.07821024     0.06310
C100        C  0.48136300  0.36991360  0.11426840     0.03350
C101        C  0.47949648  0.37903564  0.14972154    -0.12800
C102        C  0.47823465  0.35331719  0.17532434     0.00850
C103        C  0.47891120  0.31850485  0.16537910    -0.11330
C104        C  0.48004892  0.30893758  0.13054501     0.03340
C105        C  0.48170990  0.33451494  0.10498563    -0.10750
H106        H  0.47851831  0.40597594  0.15748611     0.08930
H107        H  0.47809871  0.29847420  0.18498623     0.06460
H108        H  0.48255236  0.32671796  0.07803403     0.06310
O109        O  0.42655129  0.38720851  0.49818892    -0.86270
O110        O  0.42563656  0.08319722  0.49966651    -0.86440
O111        O  0.38406822  0.48481074  0.05467593    -0.88110
O112        O  0.38391047  0.48430298  0.44190684    -0.86860
O113        O  0.42625312  0.48427277  0.40020280    -0.86450
O114        O  0.42637428  0.48468384  0.09654136    -0.87820
O115        O  0.38322289  0.04172030  0.49973289    -0.86300
O116        O  0.38421485  0.42915529  0.49869392    -0.85890
Zr117      Zr  0.41247409  0.48552446  0.49840260     2.84310
O118        O  0.44713781  0.02081412  0.46347988    -1.07860
O119        O  0.44741741  0.45054670  0.03367046    -1.08590
C120        C  0.39447751  0.39724074  0.49838826     1.06840
C121        C  0.39350436  0.07351632  0.50029529     1.06780
C122        C  0.39433653  0.48454324  0.08654436     1.09760
C123        C  0.39417531  0.48351132  0.41003510     1.07540
H124        H  0.43314970  0.03478928  0.04833816     0.33100
O125        O  0.44758265  0.02037596  0.03374779    -1.28820
H126        H  0.43344156  0.43582244  0.44893000     0.32770
O127        O  0.44766113  0.45041047  0.46344528    -1.30490
O128        O  0.03900013  0.08330655  0.50107076    -0.86270
O129        O  0.03907588  0.38693993  0.49718267    -0.87760
O130        O  0.48316764  0.04137631  0.09763749    -0.86340
O131        O  0.48358552  0.04224883  0.40064632    -0.86390
O132        O  0.48451504  0.42924484  0.40034860    -0.86100
O133        O  0.48227234  0.42905720  0.09718423    -0.85910
O134        O  0.08146486  0.48525991  0.05521004    -0.86280
O135        O  0.08159550  0.48087049  0.44225978    -0.85740
O136        O  0.03920442  0.48532997  0.09701000    -0.86810
O137        O  0.03901419  0.48090152  0.40069204    -0.85960
O138        O  0.48315136  0.08320645  0.05565200    -0.86360
O139        O  0.48238341  0.38713908  0.05509932    -0.86090
O140        O  0.48514847  0.38745055  0.44238706    -0.85740
O141        O  0.48335580  0.08401531  0.44294854    -0.86140
O142        O  0.08160366  0.04157176  0.50054790    -0.86440
O143        O  0.08131699  0.42855638  0.49764502    -0.87780
Zr144      Zr  0.48258145  0.05502034  0.49893072     2.83100
Zr145      Zr  0.48280880  0.41570119  0.49877853     2.83500
Zr146      Zr  0.48286424  0.48523365  0.06847764     2.84090
Zr147      Zr  0.48266785  0.48563887  0.42888762     2.83360
Zr148      Zr  0.05308732  0.48517694  0.49872583     2.84220
O149        O  0.01748123  0.45076339  0.46409152    -1.08350
O150        O  0.01788714  0.02010864  0.03377796    -1.07850
C151        C  0.07114463  0.07344110  0.50160850     1.06810
C152        C  0.07108972  0.39675000  0.49677685     1.09430
C153        C  0.48321434  0.07327727  0.08761950     1.06980
C154        C  0.48388657  0.07416500  0.41093272     1.07340
C155        C  0.48570725  0.39739333  0.41047281     1.06930
C156        C  0.48208409  0.39712910  0.08709519     1.06480
C157        C  0.07122995  0.48534952  0.08707700     1.06900
C158        C  0.07108594  0.47895611  0.41046589     1.06420
H159        H  0.03286244  0.43551389  0.04824560     0.33090
O160        O  0.01841244  0.45009121  0.03387058    -1.29450
H161        H  0.03289601  0.03475296  0.44922543     0.33120
O162        O  0.01825796  0.02051973  0.46357048    -1.30830
C163        C  0.47784898  0.27172855  0.12192289     0.00060
C164        C  0.00821640  0.25366695  0.11280422    -0.11810
C165        C  0.00904066  0.21736647  0.11323278     0.02300
C166        C  0.47873490  0.19887214  0.12159735    -0.00020
C167        C  0.44785594  0.21694007  0.12847704    -0.11750
C168        C  0.44736024  0.25306572  0.12939027     0.02180
H169        H  0.03194786  0.26788878  0.10843720     0.15160
H170        H  0.42480878  0.20273037  0.13590867     0.15160
C171        C  0.41640199  0.27033896  0.14174203     0.36820
C172        C  0.04194029  0.19968321  0.10935607     0.36720
N173        N  0.39200112  0.28426575  0.15248937    -0.43530
N174        N  0.06814819  0.18505697  0.10709120    -0.43520
C175        C  0.47897301  0.35995412  0.28582272     0.00060
C176        C  0.50299388  0.37953159  0.26693543    -0.11810
C177        C  0.50163894  0.38026929  0.23058978     0.02300
C178        C  0.47572993  0.36143483  0.21287298    -0.00020
C179        C  0.44976838  0.34486071  0.23211671    -0.11750
C180        C  0.45129110  0.34379477  0.26821288     0.02180
H181        H  0.52420483  0.39216876  0.28039333     0.15160
H182        H  0.42940727  0.33081492  0.21873723     0.15160
C183        C  0.42517572  0.32437690  0.28656662     0.36820
C184        C  0.52876033  0.39784783  0.21201762     0.36720
N185        N  0.40442532  0.30866723  0.30131872    -0.43530
N186        N  0.55030683  0.41180849  0.19669070    -0.43520
C187        C  0.48314254  0.11089497  0.28595377     0.00060
C188        C  0.45159588  0.11793938  0.26919656    -0.11810
C189        C  0.44969026  0.11870746  0.23304375     0.02300
C190        C  0.47931694  0.11048882  0.21305193    -0.00020
C191        C  0.51045893  0.10167433  0.22984788    -0.11750
C192        C  0.51284017  0.10290731  0.26606649     0.02180
H193        H  0.42906509  0.12534159  0.28441246     0.15160
H194        H  0.03363263  0.09680226  0.21460473     0.15160
C195        C  0.04660858  0.09954376  0.28206471     0.36820
C196        C  0.41786174  0.13060451  0.21704822     0.36720
N197        N  0.07366859  0.09706905  0.29494917    -0.43530
N198        N  0.39246983  0.14030267  0.20416030    -0.43520
C199        C  0.49765525  0.19932318  0.37703286     0.00060
C200        C  0.47011565  0.21816551  0.39181455    -0.11810
C201        C  0.47034070  0.25448072  0.39159970     0.02300
C202        C  0.49854286  0.27223645  0.37673561    -0.00020
C203        C  0.02733577  0.25336601  0.36478793    -0.11750
C204        C  0.02712004  0.21717716  0.36487059     0.02180
H205        H  0.44729186  0.20462154  0.40093898     0.15160
H206        H  0.04909141  0.26694217  0.35340359     0.15160
C207        C  0.05642249  0.19882935  0.35022003     0.36820
C208        C  0.44002101  0.27315201  0.40337773     0.36720
N209        N  0.07973630  0.18400816  0.33831335    -0.43530
N210        N  0.41612516  0.28903656  0.41237020    -0.43520
C211        C  0.19618436  0.49387370  0.12337754     0.00060
C212        C  0.21377212  0.46598679  0.10782229    -0.11810
C213        C  0.25018332  0.46467614  0.10765933     0.02300
C214        C  0.26925774  0.49167830  0.12317288    -0.00020
C215        C  0.25162582  0.02080930  0.13611069    -0.11750
C216        C  0.21533157  0.02213533  0.13622438     0.02180
H217        H  0.19909444  0.44414250  0.09804976     0.15160
H218        H  0.26626321  0.04173732  0.14779079     0.15160
C219        C  0.19819066  0.05200642  0.15105813     0.36820
C220        C  0.26731654  0.43415301  0.09422024     0.36720
N221        N  0.18438699  0.07594441  0.16286617    -0.43530
N222        N  0.28120269  0.40973618  0.08354625    -0.43520
C223        C  0.10266507  0.46344160  0.28405021     0.00060
C224        C  0.12166042  0.43946272  0.26413805    -0.11810
C225        C  0.12374586  0.44257673  0.22826748     0.02300
C226        C  0.10632490  0.46998494  0.21145643    -0.00020
C227        C  0.08307121  0.49068179  0.23053336    -0.11750
C228        C  0.08068999  0.48720757  0.26669041     0.02180
H229        H  0.13694529  0.41960147  0.27693723     0.15220
H230        H  0.06817289  0.01067871  0.21749852     0.15160
C231        C  0.05600152  0.00843127  0.28518978     0.36820
C232        C  0.14493454  0.41801109  0.20938071     0.36720
N233        N  0.03540974  0.02432694  0.30026414    -0.43530
N234        N  0.16192076  0.39838101  0.19421945    -0.43520
C235        C  0.36088920  0.47312199  0.28434849     0.00060
C236        C  0.37613558  0.50122872  0.26721545    -0.11810
C237        C  0.37647970  0.50245721  0.23088258     0.02300
C238        C  0.36082438  0.47569242  0.21161907    -0.00020
C239        C  0.34891595  0.44617064  0.22869570    -0.11750
C240        C  0.34937575  0.44443473  0.26476123     0.02180
H241        H  0.38562467  0.02309141  0.28206679     0.15160
H242        H  0.33765860  0.42515884  0.21382806     0.15160
C243        C  0.33635827  0.41358778  0.28122542     0.36820
C244        C  0.39097059  0.03212910  0.21370782     0.36720
N245        N  0.32593751  0.38895925  0.29455422    -0.43530
N246        N  0.40274897  0.05532320  0.19906136    -0.43520
C247        C  0.26926534  0.46649575  0.37316432     0.00060
C248        C  0.25236160  0.43915150  0.35621485    -0.11810
C249        C  0.21616922  0.43698878  0.35580088     0.02300
C250        C  0.19593384  0.46289793  0.37225813    -0.00020
C251        C  0.21288003  0.48830663  0.39195820    -0.11750
C252        C  0.24930437  0.49013248  0.39276265     0.02180
H253        H  0.26755376  0.42023423  0.34186986     0.15160
H254        H  0.19764749  0.50822614  0.40449460     0.15160
C255        C  0.26557217  0.51808206  0.41132624     0.36820
C256        C  0.20052396  0.40872840  0.33690999     0.36720
N257        N  0.27944612  0.54016805  0.42600610    -0.43530
N258        N  0.18812385  0.38622636  0.32148781    -0.43520
C259        C  0.10471778  0.19862924  0.49450835     0.00060
C260        C  0.09711798  0.21853808  0.02391439    -0.11810
C261        C  0.09736460  0.25468573  0.02248701     0.02300
C262        C  0.10507099  0.27134105  0.49104157    -0.00020
C263        C  0.11053918  0.25148224  0.46104694    -0.11750
C264        C  0.11050000  0.21524634  0.46260334     0.02180
H265        H  0.09371939  0.20579592  0.04855148     0.15160
H266        H  0.11699779  0.26427249  0.43695494     0.15160
C267        C  0.11908744  0.19562389  0.43190916     0.36820
C268        C  0.09342503  0.27413733  0.05423226     0.36720
N269        N  0.12615007  0.17976680  0.40743192    -0.43530
N270        N  0.09077125  0.29003141  0.07953237    -0.43520
C271        C  0.26915083  0.11260775  0.52013645     0.00060
C272        C  0.25132401  0.08928772  0.49871460    -0.11810
C273        C  0.21487516  0.08855462  0.49806909     0.02300
C274        C  0.19564336  0.11135460  0.51937911    -0.00020
C275        C  0.21366874  0.13182933  0.04364849    -0.11750
C276        C  0.25001285  0.13258964  0.04431934     0.02180
H277        H  0.26582734  0.07350260  0.48067546     0.15160
H278        H  0.19911970  0.14867221  0.06092155     0.15160
C279        C  0.26680593  0.15488619  0.06926623     0.36820
C280        C  0.19782484  0.06643605  0.47331090     0.36720
N281        N  0.28027988  0.17292021  0.08907252    -0.43530
N282        N  0.18335150  0.04882576  0.45388651    -0.43520
C283        C  0.19606376  0.35999022  0.00237523     0.00060
C284        C  0.21438670  0.37710041  0.47619190    -0.11810
C285        C  0.25080582  0.37782193  0.47665806     0.02300
C286        C  0.26904619  0.36150929  0.00376578    -0.00020
C287        C  0.25053047  0.34721349  0.03145500    -0.11750
C288        C  0.21430663  0.34636638  0.03099201     0.02180
H289        H  0.20039454  0.38769655  0.45421285     0.15160
H290        H  0.26453073  0.33488574  0.05251903     0.15160
C291        C  0.19642908  0.32983394  0.05930414     0.36820
C292        C  0.26897936  0.39250832  0.44761569     0.36720
N293        N  0.18206710  0.31653082  0.08191425    -0.43530
N294        N  0.28409453  0.40399861  0.42452687    -0.43520
C295        C  0.36034871  0.27197232  0.49862257     0.00060
C296        C  0.36262236  0.25298992  0.46771630    -0.11810
C297        C  0.36333027  0.21673849  0.46823699     0.02300
C298        C  0.36095002  0.19925220  0.50011182    -0.00020
C299        C  0.36071782  0.21850010  0.03111619    -0.11750
C300        C  0.36013432  0.25463153  0.03054541     0.02180
H301        H  0.36124718  0.26639590  0.44317700     0.15160
H302        H  0.35822262  0.20507978  0.05562061     0.15160
C303        C  0.35529934  0.27324498  0.06262483     0.36820
C304        C  0.36377516  0.19807392  0.43580692     0.36720
N305        N  0.35067907  0.28862980  0.08794090    -0.43530
N306        N  0.36423027  0.18315752  0.40978484    -0.43520
C307        C  0.36741748  0.37020449  0.99824573     0.03350
C308        C  0.37692489  0.33489329  0.99666591    -0.12800
C309        C  0.35141407  0.30923565  0.99720813     0.00850
C310        C  0.31643841  0.31842089  0.49922784    -0.11330
C311        C  0.30648166  0.35319236  0.50095700     0.03340
C312        C  0.33190956  0.37901196  0.50028347    -0.10750
H313        H  0.40400385  0.32718123  0.99558850     0.08930
H314        H  0.29681467  0.29838057  0.49993738     0.06460
H315        H  0.32390442  0.40588829  0.50187253     0.06310
C316        C  0.36677144  0.10136195  0.00248474     0.03350
C317        C  0.37646002  0.13630019  0.99878676    -0.12800
C318        C  0.35166222  0.16262731  0.00184927     0.00850
C319        C  0.31703863  0.15437145  0.00831368    -0.11330
C320        C  0.30671423  0.12003351  0.01317359     0.03340
C321        C  0.33163487  0.09343581  0.00960751    -0.10750
H322        H  0.40323817  0.14323928  0.99387685     0.08930
H323        H  0.29797816  0.17509305  0.00962132     0.06460
H324        H  0.32373688  0.06680391  0.01303897     0.06310
C325        C  0.09807220  0.10096456  0.00357184     0.03350
C326        C  0.13302700  0.09280293  0.01143181    -0.12800
C327        C  0.15832414  0.11894820  0.01292166     0.00850
C328        C  0.14829727  0.15329505  0.00683075    -0.11330
C329        C  0.11380594  0.16184924  0.99944729     0.03340
C330        C  0.08871540  0.13584609  0.99786532    -0.10750
H331        H  0.14056126  0.06627497  0.01661026     0.08930
H332        H  0.16756786  0.17366716  0.00752999     0.06460
H333        H  0.06207221  0.14292344  0.99203779     0.06310
C334        C  0.09810674  0.36935667  0.49519239     0.03350
C335        C  0.13358395  0.37795174  0.49756641    -0.12800
C336        C  0.15899764  0.35193338  0.49718632     0.00850
C337        C  0.14918333  0.31735237  0.49316613    -0.11330
C338        C  0.11417029  0.30839000  0.99080521     0.03340
C339        C  0.08862598  0.33427605  0.99197737    -0.10750
H340        H  0.14153895  0.40463308  0.50069751     0.08930
H341        H  0.16888076  0.29717083  0.49311698     0.06460
H342        H  0.06153986  0.32686648  0.99081343     0.06310
C343        C  0.36726124  0.48074275  0.88262162     0.03350
C344        C  0.33196016  0.47608028  0.89143162    -0.12800
C345        C  0.30666660  0.47226107  0.86546508     0.00850
C346        C  0.31685436  0.47312966  0.83077768    -0.11330
C347        C  0.35176937  0.47612719  0.82148822     0.03340
C348        C  0.37688133  0.48073366  0.84732617    -0.10750
H349        H  0.32417875  0.47471658  0.91832724     0.08930
H350        H  0.29736743  0.47071256  0.81060675     0.06460
H351        H  0.40385879  0.48327769  0.83984070     0.06310
C352        C  0.09763623  0.47378304  0.88289908     0.03350
C353        C  0.13335300  0.47138397  0.89116133    -0.12800
C354        C  0.15813246  0.46653959  0.86489900     0.00850
C355        C  0.14714679  0.46620017  0.83040185    -0.11330
C356        C  0.11186663  0.46664030  0.82148725     0.03340
C357        C  0.08715033  0.47007295  0.84797082    -0.10750
H358        H  0.14190720  0.47279534  0.91785673     0.08930
H359        H  0.16654016  0.46520079  0.81008493     0.06460
H360        H  0.05982755  0.46948610  0.84144968     0.06310
C361        C  0.09821457  0.48527857  0.61438329     0.03350
C362        C  0.08905813  0.47982016  0.64931782    -0.12800
C363        C  0.11468791  0.47876301  0.67506860     0.00850
C364        C  0.14934840  0.48485063  0.66608688    -0.11330
C365        C  0.15890651  0.49017366  0.63161715     0.03340
C366        C  0.13345170  0.49000467  0.60573202    -0.10750
H367        H  0.06225999  0.47528664  0.65645213     0.08930
H368        H  0.16925027  0.48447771  0.68599542     0.06460
H369        H  0.14120173  0.49382127  0.57906037     0.06310
C370        C  0.36734279  0.48410402  0.61383982     0.03350
C371        C  0.37694012  0.48038607  0.64888572    -0.12800
C372        C  0.35159482  0.48006933  0.67477939     0.00850
C373        C  0.31658122  0.48390792  0.66583793    -0.11330
C374        C  0.30656466  0.48775350  0.63124429     0.03340
C375        C  0.33187806  0.48761408  0.60522704    -0.10750
H376        H  0.40397533  0.47739619  0.65619438     0.08930
H377        H  0.29695417  0.48380711  0.68596723     0.06460
H378        H  0.32383961  0.49061609  0.57850288     0.06310
C379        C  0.48556826  0.10166179  0.88403672     0.03350
C380        C  0.48971778  0.13676511  0.89359706    -0.12800
C381        C  0.49251437  0.16245211  0.86817467     0.00850
C382        C  0.49013407  0.15328993  0.83321699    -0.11330
C383        C  0.48582497  0.11885554  0.82325448     0.03340
C384        C  0.48369993  0.09300161  0.84852735    -0.10750
H385        H  0.49147210  0.14417361  0.92061338     0.08930
H386        H  0.49169336  0.17318231  0.81352064     0.06460
H387        H  0.48041063  0.06636161  0.84041091     0.06310
C388        C  0.48802404  0.37014530  0.88349500     0.03350
C389        C  0.49354885  0.33528411  0.89295342    -0.12800
C390        C  0.49565142  0.30937153  0.86759247     0.00850
C391        C  0.49207759  0.31822038  0.83270801    -0.11330
C392        C  0.48565073  0.35248644  0.82282555     0.03340
C393        C  0.48428611  0.37851777  0.84813222    -0.10750
H394        H  0.49603555  0.32807720  0.91993750     0.08930
H395        H  0.49303993  0.29805786  0.81312815     0.06460
H396        H  0.47932991  0.40497031  0.84023888     0.06310
C397        C  0.48273975  0.10061703  0.61474364     0.03350
C398        C  0.48216740  0.09199126  0.65031456    -0.12800
C399        C  0.48020303  0.11813037  0.67558300     0.00850
C400        C  0.47931355  0.15275723  0.66546893    -0.11330
C401        C  0.48020225  0.16177270  0.63055104     0.03340
C402        C  0.48206864  0.13587107  0.60520141    -0.10750
H403        H  0.48271609  0.06518683  0.65844200     0.08930
H404        H  0.47803032  0.17294566  0.68501773     0.06460
H405        H  0.48250770  0.14335118  0.57819415     0.06310
C406        C  0.48137386  0.36985416  0.61427973     0.03350
C407        C  0.47950529  0.37898369  0.64973015    -0.12800
C408        C  0.47824482  0.35327170  0.67533863     0.00850
C409        C  0.47892118  0.31845623  0.66540080    -0.11330
C410        C  0.48006610  0.30888284  0.63056765     0.03340
C411        C  0.48172707  0.33445496  0.60500404    -0.10750
H412        H  0.47852284  0.40592563  0.65748861     0.08930
H413        H  0.47810473  0.29842946  0.68501150     0.06460
H414        H  0.48257162  0.32665311  0.57805386     0.06310
O415        O  0.42652244  0.38737747  0.99819842    -0.86270
O416        O  0.42579560  0.08334632  0.99968329    -0.86440
O417        O  0.38402211  0.48467422  0.55467929    -0.88110
O418        O  0.38394916  0.48443278  0.94191139    -0.86860
O419        O  0.42629125  0.48434798  0.90020670    -0.86450
O420        O  0.42633077  0.48460375  0.59654264    -0.87820
O421        O  0.38334521  0.04190675  0.99973967    -0.86300
O422        O  0.38420012  0.42933909  0.99870019    -0.85890
Zr423      Zr  0.41252492  0.48566943  0.99840182     2.84310
O424        O  0.44722107  0.02092556  0.96347978    -1.07860
O425        O  0.44739284  0.45043757  0.53367667    -1.08590
C426        C  0.39445278  0.39742285  0.99839777     1.06840
C427        C  0.39365569  0.07369414  0.00031215     1.06780
C428        C  0.39429308  0.48444089  0.58654728     1.09760
C429        C  0.39421207  0.48360623  0.91003980     1.07540
H430        H  0.43305973  0.03467075  0.54833245     0.33100
O431        O  0.44750255  0.02026656  0.53374364    -1.28820
H432        H  0.43345366  0.43593343  0.94893557     0.32770
O433        O  0.44768317  0.45051512  0.96344836    -1.30490
O434        O  0.03915220  0.08332411  0.00106963    -0.86270
O435        O  0.03906375  0.38698184  0.99718080    -0.87760
O436        O  0.48310744  0.04131070  0.59763342    -0.86340
O437        O  0.48364207  0.04231483  0.90064422    -0.86390
O438        O  0.48453440  0.42931077  0.90035366    -0.86100
O439        O  0.48225523  0.42899217  0.59718758    -0.85910
O440        O  0.08141941  0.48524293  0.55520057    -0.86280
O441        O  0.08163876  0.48088236  0.94225342    -0.85740
O442        O  0.03916291  0.48529117  0.59700369    -0.86810
O443        O  0.03905418  0.48094095  0.90068807    -0.85960
O444        O  0.48303519  0.08313717  0.55564453    -0.86360
O445        O  0.48239185  0.38706810  0.55510773    -0.86090
O446        O  0.48513762  0.38752084  0.94239609    -0.85740
O447        O  0.48346487  0.08408321  0.94294517    -0.86140
O448        O  0.08174283  0.04157812  0.00054339    -0.86440
O449        O  0.08132593  0.42857724  0.99764535    -0.87780
Zr450      Zr  0.48269864  0.05509798  0.99893376     2.83100
Zr451      Zr  0.48281748  0.41578809  0.99877934     2.83500
Zr452      Zr  0.48281648  0.48516205  0.56847641     2.84090
Zr453      Zr  0.48271435  0.48571187  0.92888760     2.83360
Zr454      Zr  0.05314666  0.48521682  0.99872700     2.84220
O455        O  0.01751362  0.45082563  0.96409392    -1.08350
O456        O  0.01780518  0.02005549  0.53376828    -1.07850
C457        C  0.07129579  0.07345167  0.00160160     1.06810
C458        C  0.07108260  0.39677688  0.99677609     1.09430
C459        C  0.48312988  0.07321169  0.58761304     1.06980
C460        C  0.48396489  0.07423026  0.91092926     1.07340
C461        C  0.48570762  0.39745914  0.91048088     1.06930
C462        C  0.48208509  0.39706339  0.58710215     1.06480
C463        C  0.07118817  0.48532803  0.58706838     1.06900
C464        C  0.07112506  0.47897442  0.91046014     1.06420
H465        H  0.03283640  0.43546922  0.54824257     0.33090
O466        O  0.01837589  0.45003498  0.53386741    -1.29450
H467        H  0.03298810  0.03480019  0.94921268     0.33120
O468        O  0.01834221  0.02057657  0.96356084    -1.30830
C469        C  0.47786667  0.27167446  0.62194505     0.00060
C470        C  0.00823510  0.25360915  0.61283809    -0.11810
C471        C  0.00904794  0.21730839  0.61324572     0.02300
C472        C  0.47873138  0.19881819  0.62158088    -0.00020
C473        C  0.44785296  0.21689208  0.62845082    -0.11750
C474        C  0.44736683  0.25301793  0.62938000     0.02180
H475        H  0.03197328  0.26782654  0.60849250     0.15160
H476        H  0.42479698  0.20268562  0.63586139     0.15160
C477        C  0.41640111  0.27029836  0.64170361     0.36820
C478        C  0.04194440  0.19961820  0.60937361     0.36720
N479        N  0.39199345  0.28423403  0.65242427    -0.43530
N480        N  0.06815051  0.18498850  0.60710970    -0.43520
C481        C  0.47896342  0.35998645  0.78583569     0.00060
C482        C  0.50298399  0.37955385  0.76693837    -0.11810
C483        C  0.50163771  0.38026116  0.73059193     0.02300
C484        C  0.47573831  0.36140447  0.71288402    -0.00020
C485        C  0.44977705  0.34483867  0.73213474    -0.11750
C486        C  0.45129032  0.34380461  0.76823227     0.02180
H487        H  0.52418986  0.39220519  0.78039087     0.15160
H488        H  0.42942245  0.33077736  0.71876189     0.15160
C489        C  0.42517731  0.32439244  0.78659557     0.36820
C490        C  0.52875936  0.39783234  0.71201304     0.36720
N491        N  0.40442905  0.30868694  0.80135513    -0.43530
N492        N  0.55030652  0.41178720  0.69668171    -0.43520
C493        C  0.48315621  0.11093012  0.78594611     0.00060
C494        C  0.45160640  0.11796727  0.76919219    -0.11810
C495        C  0.44968953  0.11870061  0.73303921     0.02300
C496        C  0.47930818  0.11045682  0.71304520    -0.00020
C497        C  0.51045318  0.10164990  0.72983994    -0.11750
C498        C  0.51284506  0.10291351  0.76605731     0.02180
H499        H  0.42908170  0.12538764  0.78440834     0.15160
H500        H  0.03362119  0.09676001  0.71459434     0.15160
C501        C  0.04661560  0.09954982  0.78205001     0.36820
C502        C  0.41785964  0.13059296  0.71704279     0.36720
N503        N  0.07367738  0.09707519  0.79493079    -0.43530
N504        N  0.39246722  0.14028787  0.70415345    -0.43520
C505        C  0.49766547  0.19938299  0.87701336     0.00060
C506        C  0.47012088  0.21822002  0.89179195    -0.11810
C507        C  0.47034847  0.25453492  0.89159321     0.02300
C508        C  0.49856010  0.27229566  0.87675394    -0.00020
C509        C  0.02735585  0.25342824  0.86480768    -0.11750
C510        C  0.02713523  0.21723921  0.86486927     0.02180
H511        H  0.44729276  0.20467319  0.90090126     0.15160
H512        H  0.04911620  0.26700792  0.85343657     0.15160
C513        C  0.05643857  0.19889434  0.85021691     0.36820
C514        C  0.44002060  0.27320340  0.90335338     0.36720
N515        N  0.07975223  0.18407407  0.83830879    -0.43530
N516        N  0.41611891  0.28908939  0.91232721    -0.43520
C517        C  0.19615054  0.49387564  0.62335613     0.00060
C518        C  0.21373584  0.46598649  0.60780209    -0.11810
C519        C  0.25014690  0.46466422  0.60765320     0.02300
C520        C  0.26922410  0.49165624  0.62318192    -0.00020
C521        C  0.25159627  0.02079094  0.63611694    -0.11750
C522        C  0.21530229  0.02212911  0.63621499     0.02180
H523        H  0.19905521  0.44414789  0.59802122     0.15160
H524        H  0.26623567  0.04171315  0.64780502     0.15160
C525        C  0.19816536  0.05200314  0.65104729     0.36820
C526        C  0.26727483  0.43413873  0.59421227     0.36720
N527        N  0.18436515  0.07594357  0.66285436    -0.43530
N528        N  0.28115603  0.40972013  0.58353577    -0.43520
C529        C  0.10268043  0.46344347  0.78404148     0.00060
C530        C  0.12167073  0.43946527  0.76412381    -0.11810
C531        C  0.12374144  0.44257609  0.72825206     0.02300
C532        C  0.10630991  0.46998025  0.71144488    -0.00020
C533        C  0.08306237  0.49067677  0.73052894    -0.11750
C534        C  0.08069637  0.48720637  0.76668741     0.02180
H535        H  0.13696202  0.41960597  0.77691849     0.15220
H536        H  0.06815778  0.01067158  0.71749793     0.15160
C537        C  0.05601436  0.00843236  0.78519272     0.36820
C538        C  0.14492797  0.41801265  0.70935995     0.36720
N539        N  0.03542752  0.02433115  0.80027053    -0.43530
N540        N  0.16191307  0.39838445  0.69419502    -0.43520
C541        C  0.36091177  0.47314253  0.78435853     0.00060
C542        C  0.37614792  0.50124500  0.76720980    -0.11810
C543        C  0.37647120  0.50246392  0.73087643     0.02300
C544        C  0.36080327  0.47569482  0.71162916    -0.00020
C545        C  0.34890558  0.44617724  0.72871933    -0.11750
C546        C  0.34938829  0.44444945  0.76478468     0.02180
H547        H  0.38564410  0.02311207  0.78205003     0.15160
H548        H  0.33764088  0.42516130  0.71386313     0.15160
C549        C  0.33637969  0.41360601  0.78126283     0.36820
C550        C  0.39095669  0.03212906  0.71368555     0.36720
N551        N  0.32596496  0.38898019  0.79460136    -0.43530
N552        N  0.40273118  0.05531792  0.69902760    -0.43520
C553        C  0.26929758  0.46650464  0.87317145     0.00060
C554        C  0.25240187  0.43916947  0.85619653    -0.11810
C555        C  0.21620957  0.43699837  0.85577328     0.02300
C556        C  0.19596497  0.46289140  0.87224345    -0.00020
C557        C  0.21290179  0.48828325  0.89197269    -0.11750
C558        C  0.24932567  0.49011576  0.89278874     0.02180
H559        H  0.26760050  0.42026485  0.84184197     0.15160
H560        H  0.19766082  0.50818248  0.90452935     0.15160
C561        C  0.26558306  0.51804186  0.91139392     0.36820
C562        C  0.20057382  0.40874120  0.83686997     0.36720
N563        N  0.27945373  0.54010520  0.92611006    -0.43530
N564        N  0.18817963  0.38624086  0.82144052    -0.43520
C565        C  0.10476990  0.19865449  0.99450767     0.00060
C566        C  0.09706183  0.21852286  0.52390774    -0.11810
C567        C  0.09733968  0.25467051  0.52247755     0.02300
C568        C  0.10506256  0.27136453  0.99104726    -0.00020
C569        C  0.11052170  0.25151341  0.96104602    -0.11750
C570        C  0.11051273  0.21527783  0.96259936     0.02180
H571        H  0.09363144  0.20578622  0.54854317     0.15160
H572        H  0.11695601  0.26431077  0.93695127     0.15160
C573        C  0.11909816  0.19566372  0.93189917     0.36820
C574        C  0.09339354  0.27412824  0.55421825     0.36720
N575        N  0.12616024  0.17981140  0.90741871    -0.43530
N576        N  0.09073540  0.29002799  0.57951435    -0.43520
C577        C  0.26931621  0.11285346  0.02007005     0.00060
C578        C  0.25151780  0.08953357  0.99862511    -0.11810
C579        C  0.21507025  0.08874613  0.99798212     0.02300
C580        C  0.19580432  0.11149172  0.01931674    -0.00020
C581        C  0.21353184  0.13166793  0.54371056    -0.11750
C582        C  0.24987574  0.13236981  0.54438705     0.02180
H583        H  0.26604345  0.07378510  0.98057365     0.15160
H584        H  0.19900556  0.14853923  0.56097505     0.15160
C585        C  0.26670123  0.15464385  0.56933185     0.36820
C586        C  0.19805109  0.06662822  0.97320422     0.36720
N587        N  0.28019992  0.17265853  0.58913880    -0.43530
N588        N  0.18360281  0.04901944  0.95376059    -0.43520
C589        C  0.19607970  0.35995480  0.50238270     0.00060
C590        C  0.21436067  0.37714625  0.97618432    -0.11810
C591        C  0.25077846  0.37790421  0.97666034     0.02300
C592        C  0.26906406  0.36139583  0.50375153    -0.00020
C593        C  0.25054196  0.34711522  0.53144396    -0.11750
C594        C  0.21431709  0.34630818  0.53099248     0.02180
H595        H  0.20036383  0.38772428  0.95419945     0.15160
H596        H  0.26453558  0.33476879  0.55250146     0.15160
C597        C  0.19643088  0.32978788  0.55930632     0.36820
C598        C  0.26894605  0.39258976  0.94761466     0.36720
N599        N  0.18206221  0.31649452  0.58191798    -0.43530
N600        N  0.28406142  0.40407539  0.92452400    -0.43520
C601        C  0.36041799  0.27216911  0.99864619     0.00060
C602        C  0.36269035  0.25318202  0.96774565    -0.11810
C603        C  0.36348267  0.21693487  0.96828176     0.02300
C604        C  0.36118103  0.19945757  0.00016739    -0.00020
C605        C  0.36047235  0.21828386  0.53106600    -0.11750
C606        C  0.35996856  0.25441625  0.53051197     0.02180
H607        H  0.36124878  0.26657593  0.94320313     0.15160
H608        H  0.35792096  0.20485771  0.55556139     0.15160
C609        C  0.35512683  0.27301670  0.56259779     0.36820
C610        C  0.36392501  0.19825861  0.93585859     0.36720
N611        N  0.35050548  0.28838030  0.58792655    -0.43530
N612        N  0.36437967  0.18333371  0.90984147    -0.43520
C613        C  0.36743984  0.87001923  0.49823315     0.03350
C614        C  0.37692603  0.83469878  0.49665325    -0.12800
C615        C  0.35139235  0.80905523  0.49718954     0.00850
C616        C  0.31645390  0.81857241  0.99925285    -0.11330
C617        C  0.30647146  0.85333791  0.00097894     0.03340
C618        C  0.33188225  0.87917776  0.00029905    -0.10750
H619        H  0.40400098  0.82697269  0.49557954     0.08930
H620        H  0.29684729  0.79851582  0.99996737     0.06460
H621        H  0.32386289  0.90605019  0.00188428     0.06310
C622        C  0.36659466  0.60116077  0.50245441     0.03350
C623        C  0.37625219  0.63610271  0.49871323    -0.12800
C624        C  0.35144063  0.66241628  0.50177900     0.00850
C625        C  0.31683046  0.65414025  0.50828576    -0.11330
C626        C  0.30653570  0.61979789  0.51318624     0.03340
C627        C  0.33147035  0.59321348  0.50961670    -0.10750
H628        H  0.40302178  0.64305695  0.49377944     0.08930
H629        H  0.29775860  0.67485070  0.50960629     0.06460
H630        H  0.32359569  0.56657901  0.51308213     0.06310
C631        C  0.09792054  0.60094659  0.50359446     0.03350
C632        C  0.13285747  0.59275625  0.51148581    -0.12800
C633        C  0.15817975  0.61886921  0.51297148     0.00850
C634        C  0.14819445  0.65322552  0.50686281    -0.11330
C635        C  0.11371361  0.66181407  0.49945808     0.03340
C636        C  0.08859631  0.63583330  0.49786949    -0.10750
H637        H  0.14036208  0.56622466  0.51668774     0.08930
H638        H  0.16748809  0.67357564  0.50756534     0.06460
H639        H  0.06196215  0.64292872  0.49202252     0.06310
C640        C  0.09809223  0.86937809  0.99519300     0.03350
C641        C  0.13356926  0.87797361  0.99756246    -0.12800
C642        C  0.15898366  0.85195828  0.99718423     0.00850
C643        C  0.14917083  0.81737670  0.99317154    -0.11330
C644        C  0.11418351  0.80836664  0.49079804     0.03340
C645        C  0.08864137  0.83425407  0.49197182    -0.10750
H646        H  0.14152529  0.90465525  0.00068851     0.08930
H647        H  0.16886949  0.79719638  0.99312395     0.06460
H648        H  0.06155558  0.82684371  0.49080575     0.06310
C649        C  0.36722828  0.98067237  0.38261401     0.03350
C650        C  0.33192537  0.97603030  0.39142016    -0.12800
C651        C  0.30663352  0.97223207  0.36545195     0.00850
C652        C  0.31682240  0.97310038  0.33076404    -0.11330
C653        C  0.35173981  0.97609139  0.32147775     0.03340
C654        C  0.37685138  0.98067512  0.34731970    -0.10750
H655        H  0.32413894  0.97466804  0.41831459     0.08930
H656        H  0.29733512  0.97069264  0.31059240     0.06460
H657        H  0.40383074  0.98320998  0.33983754     0.06310
C658        C  0.09760308  0.97377987  0.38290720     0.03350
C659        C  0.13332009  0.97138915  0.39117363    -0.12800
C660        C  0.15810275  0.96654944  0.36491347     0.00850
C661        C  0.14712179  0.96620819  0.33041569    -0.11330
C662        C  0.11184341  0.96664148  0.32149698     0.03340
C663        C  0.08712264  0.97006991  0.34797702    -0.10750
H664        H  0.14187176  0.97280031  0.41786988     0.08930
H665        H  0.16651823  0.96520911  0.31010146     0.06460
H666        H  0.05980096  0.96947876  0.34145147     0.06310
C667        C  0.09825172  0.98528710  0.11439484     0.03350
C668        C  0.08908848  0.97982864  0.14932731    -0.12800
C669        C  0.11471354  0.97876607  0.17508218     0.00850
C670        C  0.14937724  0.98484699  0.16610587    -0.11330
C671        C  0.15894077  0.99016984  0.13163721     0.03340
C672        C  0.13349009  0.99000681  0.10574890    -0.10750
H673        H  0.06228813  0.97530051  0.15645708     0.08930
H674        H  0.16927617  0.98447096  0.18601718     0.06460
H675        H  0.14124428  0.99382541  0.07907873     0.06310
C676        C  0.36738218  0.98418127  0.11383441     0.03350
C677        C  0.37697509  0.98043727  0.14887942    -0.12800
C678        C  0.35162464  0.98008339  0.17476853     0.00850
C679        C  0.31661139  0.98391135  0.16582360    -0.11330
C680        C  0.30659902  0.98778348  0.13123273     0.03340
C681        C  0.33191623  0.98768016  0.10521904    -0.10750
H682        H  0.40401048  0.97745563  0.15619038     0.08930
H683        H  0.29698060  0.98378499  0.18594906     0.06460
H684        H  0.32387954  0.99069919  0.07849634     0.06310
C685        C  0.48550830  0.60160164  0.38404448     0.03350
C686        C  0.48967217  0.63670284  0.39361187    -0.12800
C687        C  0.49249545  0.66239253  0.36819384     0.00850
C688        C  0.49012514  0.65323546  0.33323494    -0.11330
C689        C  0.48580197  0.61880590  0.32326533     0.03340
C690        C  0.48365132  0.59294827  0.34853263    -0.10750
H691        H  0.49141866  0.64410655  0.42062995     0.08930
H692        H  0.49170100  0.67312960  0.31354159     0.06460
H693        H  0.48035157  0.56631135  0.34041047     0.06310
C694        C  0.48802780  0.87008520  0.38348316     0.03350
C695        C  0.49354281  0.83522216  0.39293662    -0.12800
C696        C  0.49563675  0.80931247  0.36757291     0.00850
C697        C  0.49206782  0.81816750  0.33268832    -0.11330
C698        C  0.48565577  0.85243866  0.32281068     0.03340
C699        C  0.48429686  0.87846504  0.34812193    -0.10750
H700        H  0.49602675  0.82801102  0.41991982     0.08930
H701        H  0.49302478  0.79800785  0.31310545     0.06460
H702        H  0.47934909  0.90492037  0.34023270     0.06310
C703        C  0.48280469  0.60067714  0.11475289     0.03350
C704        C  0.48221615  0.59204436  0.15032104    -0.12800
C705        C  0.48021824  0.61817657  0.17559306     0.00850
C706        C  0.47930996  0.65280543  0.16548498    -0.11330
C707        C  0.48021783  0.66182731  0.13056830     0.03340
C708        C  0.48211865  0.63593124  0.10521612    -0.10750
H709        H  0.48277795  0.56523864  0.15844384     0.08930
H710        H  0.47800227  0.67298946  0.18503662     0.06460
H711        H  0.48256930  0.64341566  0.07821024     0.06310
C712        C  0.48136296  0.86991361  0.11426841     0.03350
C713        C  0.47949639  0.87903564  0.14972154    -0.12800
C714        C  0.47823457  0.85331719  0.17532435     0.00850
C715        C  0.47891116  0.81850485  0.16537910    -0.11330
C716        C  0.48004892  0.80893758  0.13054502     0.03340
C717        C  0.48170990  0.83451494  0.10498564    -0.10750
H718        H  0.47851819  0.90597595  0.15748611     0.08930
H719        H  0.47809868  0.79847421  0.18498624     0.06460
H720        H  0.48255240  0.82671796  0.07803404     0.06310
O721        O  0.42655129  0.88720851  0.49818893    -0.86270
O722        O  0.42563656  0.58319722  0.49966651    -0.86440
O723        O  0.38406821  0.98481073  0.05467593    -0.88110
O724        O  0.38391047  0.98430299  0.44190684    -0.86860
O725        O  0.42625312  0.98427277  0.40020280    -0.86450
O726        O  0.42637427  0.98468383  0.09654136    -0.87820
O727        O  0.38322288  0.54172030  0.49973289    -0.86300
O728        O  0.38421485  0.92915529  0.49869393    -0.85890
Zr729      Zr  0.41247409  0.98552445  0.49840260     2.84310
O730        O  0.44713781  0.52081412  0.46347988    -1.07860
O731        O  0.44741740  0.95054670  0.03367046    -1.08590
C732        C  0.39447751  0.89724074  0.49838828     1.06840
C733        C  0.39350436  0.57351632  0.50029529     1.06780
C734        C  0.39433652  0.98454322  0.08654436     1.09760
C735        C  0.39417532  0.98351132  0.41003510     1.07540
H736        H  0.43314970  0.53478929  0.04833817     0.33100
O737        O  0.44758266  0.52037597  0.03374780    -1.28820
H738        H  0.43344155  0.93582243  0.44892999     0.32770
O739        O  0.44766113  0.95041046  0.46344527    -1.30490
O740        O  0.03900012  0.58330654  0.50107074    -0.86270
O741        O  0.03907589  0.88693993  0.49718267    -0.87760
O742        O  0.48316768  0.54137631  0.09763749    -0.86340
O743        O  0.48358556  0.54224883  0.40064632    -0.86390
O744        O  0.48451502  0.92924483  0.40034860    -0.86100
O745        O  0.48227232  0.92905720  0.09718423    -0.85910
O746        O  0.08146486  0.98525991  0.05521004    -0.86280
O747        O  0.08159551  0.98087050  0.44225979    -0.85740
O748        O  0.03920441  0.98532997  0.09701001    -0.86810
O749        O  0.03901420  0.98090152  0.40069205    -0.85960
O750        O  0.48315140  0.58320645  0.05565200    -0.86360
O751        O  0.48238339  0.88713908  0.05509932    -0.86090
O752        O  0.48514846  0.88745054  0.44238706    -0.85740
O753        O  0.48335584  0.58401532  0.44294855    -0.86140
O754        O  0.08160366  0.54157176  0.50054788    -0.86440
O755        O  0.08131699  0.92855638  0.49764503    -0.87780
Zr756      Zr  0.48258144  0.55502035  0.49893073     2.83100
Zr757      Zr  0.48280881  0.91570119  0.49877853     2.83500
Zr758      Zr  0.48286423  0.98523365  0.06847764     2.84090
Zr759      Zr  0.48266785  0.98563886  0.42888761     2.83360
Zr760      Zr  0.05308733  0.98517694  0.49872584     2.84220
O761        O  0.01748123  0.95076340  0.46409153    -1.08350
O762        O  0.01788714  0.52010864  0.03377796    -1.07850
C763        C  0.07114463  0.57344110  0.50160847     1.06810
C764        C  0.07108972  0.89675000  0.49677686     1.09430
C765        C  0.48321440  0.57327727  0.08761950     1.06980
C766        C  0.48388663  0.57416501  0.41093273     1.07340
C767        C  0.48570724  0.89739332  0.41047281     1.06930
C768        C  0.48208406  0.89712910  0.08709519     1.06480
C769        C  0.07122994  0.98534952  0.08707701     1.06900
C770        C  0.07108596  0.97895613  0.41046590     1.06420
H771        H  0.03286243  0.93551389  0.04824560     0.33090
O772        O  0.01841243  0.95009121  0.03387058    -1.29450
H773        H  0.03289600  0.53475296  0.44922541     0.33120
O774        O  0.01825795  0.52051973  0.46357046    -1.30830
C775        C  0.47784902  0.77172855  0.12192290     0.00060
C776        C  0.00821644  0.75366693  0.11280421    -0.11810
C777        C  0.00904067  0.71736644  0.11323278     0.02300
C778        C  0.47873504  0.69887214  0.12159735    -0.00020
C779        C  0.44785604  0.71694003  0.12847701    -0.11750
C780        C  0.44736030  0.75306568  0.12939024     0.02180
H781        H  0.03194791  0.76788875  0.10843719     0.15160
H782        H  0.42480890  0.70273030  0.13590862     0.15160
C783        C  0.41640202  0.77033888  0.14174198     0.36820
C784        C  0.04194029  0.69968317  0.10935606     0.36720
N785        N  0.39200112  0.78426564  0.15248930    -0.43530
N786        N  0.06814817  0.68505690  0.10709118    -0.43520
C787        C  0.47897291  0.85995410  0.28582272     0.00060
C788        C  0.50299372  0.87953164  0.26693544    -0.11810
C789        C  0.50163878  0.88026935  0.23058979     0.02300
C790        C  0.47572982  0.86143484  0.21287299    -0.00020
C791        C  0.44976830  0.84486065  0.23211671    -0.11750
C792        C  0.45129103  0.84379471  0.26821288     0.02180
H793        H  0.52420464  0.89216885  0.28039334     0.15160
H794        H  0.42940723  0.83081483  0.21873723     0.15160
C795        C  0.42517570  0.82437676  0.28656661     0.36820
C796        C  0.52876013  0.89784797  0.21201764     0.36720
N797        N  0.40442533  0.80866704  0.30131871    -0.43530
N798        N  0.55030659  0.91180869  0.19669074    -0.43520
C799        C  0.48314277  0.61089496  0.28595377     0.00060
C800        C  0.45159611  0.61793935  0.26919656    -0.11810
C801        C  0.44969049  0.61870743  0.23304376     0.02300
C802        C  0.47931717  0.61048882  0.21305193    -0.00020
C803        C  0.51045917  0.60167435  0.22984787    -0.11750
C804        C  0.51284041  0.60290733  0.26606649     0.02180
H805        H  0.42906532  0.62534153  0.28441246     0.15160
H806        H  0.03363245  0.59680217  0.21460478     0.15160
C807        C  0.04660833  0.59954367  0.28206477     0.36820
C808        C  0.41786195  0.63060447  0.21704824     0.36720
N809        N  0.07366832  0.59706894  0.29494926    -0.43530
N810        N  0.39247004  0.64030263  0.20416032    -0.43520
C811        C  0.49765541  0.69932318  0.37703287     0.00060
C812        C  0.47011578  0.71816547  0.39181455    -0.11810
C813        C  0.47034079  0.75448069  0.39159969     0.02300
C814        C  0.49854293  0.77223646  0.37673560    -0.00020
C815        C  0.02733565  0.75336596  0.36478797    -0.11750
C816        C  0.02711986  0.71717712  0.36487062     0.02180
H817        H  0.44729201  0.70462148  0.40093898     0.15160
H818        H  0.04909131  0.76694209  0.35340364     0.15160
C819        C  0.05642229  0.69882927  0.35022007     0.36820
C820        C  0.44002107  0.77315194  0.40337772     0.36720
N821        N  0.07973609  0.68400803  0.33831341    -0.43530
N822        N  0.41612520  0.78903647  0.41237018    -0.43520
C823        C  0.19618435  0.99387369  0.12337755     0.00060
C824        C  0.21377210  0.96598679  0.10782227    -0.11810
C825        C  0.25018331  0.96467613  0.10765930     0.02300
C826        C  0.26925773  0.99167828  0.12317289    -0.00020
C827        C  0.25162583  0.52080934  0.13611065    -0.11750
C828        C  0.21533157  0.52213536  0.13622434     0.02180
H829        H  0.19909442  0.94414252  0.09804972     0.15160
H830        H  0.26626321  0.54173737  0.14779072     0.15160
C831        C  0.19819065  0.55200647  0.15105805     0.36820
C832        C  0.26731653  0.93415301  0.09422019     0.36720
N833        N  0.18438698  0.57594447  0.16286606    -0.43530
N834        N  0.28120267  0.90973619  0.08354616    -0.43520
C835        C  0.10266508  0.96344164  0.28405022     0.00060
C836        C  0.12166040  0.93946275  0.26413806    -0.11810
C837        C  0.12374584  0.94257674  0.22826750     0.02300
C838        C  0.10632489  0.96998496  0.21145644    -0.00020
C839        C  0.08307122  0.99068184  0.23053337    -0.11750
C840        C  0.08069002  0.98720762  0.26669042     0.02180
H841        H  0.13694526  0.91960148  0.27693725     0.15220
H842        H  0.06817287  0.51067866  0.21749851     0.15160
C843        C  0.05600146  0.50843118  0.28518975     0.36820
C844        C  0.14493449  0.91801108  0.20938073     0.36720
N845        N  0.03540964  0.52432681  0.30026411    -0.43530
N846        N  0.16192069  0.89838099  0.19421946    -0.43520
C847        C  0.36088921  0.97312199  0.28434849     0.00060
C848        C  0.37613557  0.00122873  0.26721544    -0.11810
C849        C  0.37647969  0.00245721  0.23088257     0.02300
C850        C  0.36082438  0.97569240  0.21161907    -0.00020
C851        C  0.34891597  0.94617062  0.22869571    -0.11750
C852        C  0.34937578  0.94443472  0.26476124     0.02180
H853        H  0.38562470  0.52309139  0.28206681     0.15160
H854        H  0.33765863  0.92515880  0.21382807     0.15160
C855        C  0.33635831  0.91358777  0.28122544     0.36820
C856        C  0.39097063  0.53212909  0.21370785     0.36720
N857        N  0.32593756  0.88895925  0.29455425    -0.43530
N858        N  0.40274903  0.55532319  0.19906139    -0.43520
C859        C  0.26926534  0.96649577  0.37316432     0.00060
C860        C  0.25236160  0.93915152  0.35621486    -0.11810
C861        C  0.21616923  0.93698880  0.35580089     0.02300
C862        C  0.19593385  0.96289796  0.37225814    -0.00020
C863        C  0.21288004  0.98830666  0.39195819    -0.11750
C864        C  0.24930438  0.99013252  0.39276264     0.02180
H865        H  0.26755376  0.92023425  0.34186987     0.15160
H866        H  0.19764750  0.00822618  0.40449459     0.15160
C867        C  0.26557218  0.01808210  0.41132621     0.36820
C868        C  0.20052396  0.90872842  0.33691001     0.36720
N869        N  0.27944613  0.04016811  0.42600607    -0.43530
N870        N  0.18812385  0.88622638  0.32148783    -0.43520
C871        C  0.10471777  0.69862925  0.49450834     0.00060
C872        C  0.09711802  0.71853809  0.02391444    -0.11810
C873        C  0.09736463  0.75468574  0.02248705     0.02300
C874        C  0.10507099  0.77134105  0.49104158    -0.00020
C875        C  0.11053915  0.75148225  0.46104694    -0.11750
C876        C  0.11049997  0.71524635  0.46260334     0.02180
H877        H  0.09371946  0.70579593  0.04855153     0.15160
H878        H  0.11699775  0.76427251  0.43695494     0.15160
C879        C  0.11908738  0.69562391  0.43190914     0.36820
C880        C  0.09342509  0.77413734  0.05423230     0.36720
N881        N  0.12614999  0.67976683  0.40743189    -0.43530
N882        N  0.09077132  0.79003142  0.07953241    -0.43520
C883        C  0.26915082  0.61260774  0.52013645     0.00060
C884        C  0.25132400  0.58928773  0.49871458    -0.11810
C885        C  0.21487516  0.58855462  0.49806906     0.02300
C886        C  0.19564336  0.61135460  0.51937909    -0.00020
C887        C  0.21366874  0.63182932  0.04364852    -0.11750
C888        C  0.25001286  0.63258963  0.04431936     0.02180
H889        H  0.26582733  0.57350262  0.48067544     0.15160
H890        H  0.19911971  0.64867219  0.06092158     0.15160
C891        C  0.26680594  0.65488617  0.06926625     0.36820
C892        C  0.19782484  0.56643607  0.47331086     0.36720
N893        N  0.28027989  0.67292019  0.08907254    -0.43530
N894        N  0.18335150  0.54882580  0.45388645    -0.43520
C895        C  0.19606376  0.85999022  0.00237522     0.00060
C896        C  0.21438670  0.87710041  0.47619194    -0.11810
C897        C  0.25080582  0.87782194  0.47665811     0.02300
C898        C  0.26904618  0.86150929  0.00376575    -0.00020
C899        C  0.25053047  0.84721349  0.03145498    -0.11750
C900        C  0.21430663  0.84636638  0.03099200     0.02180
H901        H  0.20039455  0.88769656  0.45421289     0.15160
H902        H  0.26453073  0.83488574  0.05251901     0.15160
C903        C  0.19642909  0.82983394  0.05930413     0.36820
C904        C  0.26897936  0.89250834  0.44761574     0.36720
N905        N  0.18206711  0.81653083  0.08191425    -0.43530
N906        N  0.28409453  0.90399865  0.42452692    -0.43520
C907        C  0.36034870  0.77197232  0.49862266     0.00060
C908        C  0.36262242  0.75298993  0.46771638    -0.11810
C909        C  0.36333033  0.71673850  0.46823707     0.02300
C910        C  0.36095001  0.69925220  0.50011189    -0.00020
C911        C  0.36071783  0.71850011  0.03111618    -0.11750
C912        C  0.36013432  0.75463154  0.03054539     0.02180
H913        H  0.36124729  0.76639592  0.44317709     0.15160
H914        H  0.35822263  0.70507979  0.05562060     0.15160
C915        C  0.35529934  0.77324500  0.06262481     0.36820
C916        C  0.36377529  0.69807394  0.43580699     0.36720
N917        N  0.35067907  0.78862983  0.08794087    -0.43530
N918        N  0.36423044  0.68315755  0.40978490    -0.43520
C919        C  0.36741748  0.87020449  0.99824571     0.03350
C920        C  0.37692489  0.83489329  0.99666589    -0.12800
C921        C  0.35141406  0.80923565  0.99720810     0.00850
C922        C  0.31643841  0.81842089  0.49922791    -0.11330
C923        C  0.30648166  0.85319237  0.50095705     0.03340
C924        C  0.33190956  0.87901196  0.50028350    -0.10750
H925        H  0.40400385  0.82718123  0.99558848     0.08930
H926        H  0.29681466  0.79838058  0.49993746     0.06460
H927        H  0.32390442  0.90588830  0.50187255     0.06310
C928        C  0.36677145  0.60136195  0.00248475     0.03350
C929        C  0.37646002  0.63630019  0.99878676    -0.12800
C930        C  0.35166222  0.66262731  0.00184927     0.00850
C931        C  0.31703864  0.65437145  0.00831369    -0.11330
C932        C  0.30671424  0.62003351  0.01317360     0.03340
C933        C  0.33163488  0.59343581  0.00960752    -0.10750
H934        H  0.40323817  0.64323928  0.99387685     0.08930
H935        H  0.29797817  0.67509305  0.00962133     0.06460
H936        H  0.32373689  0.56680392  0.01303898     0.06310
C937        C  0.09807221  0.60096456  0.00357186     0.03350
C938        C  0.13302701  0.59280292  0.01143182    -0.12800
C939        C  0.15832414  0.61894820  0.01292168     0.00850
C940        C  0.14829727  0.65329505  0.00683079    -0.11330
C941        C  0.11380594  0.66184924  0.99944732     0.03340
C942        C  0.08871540  0.63584609  0.99786534    -0.10750
H943        H  0.14056127  0.56627497  0.01661026     0.08930
H944        H  0.16756786  0.67366717  0.00753003     0.06460
H945        H  0.06207222  0.64292343  0.99203781     0.06310
C946        C  0.09810674  0.86935667  0.49519240     0.03350
C947        C  0.13358395  0.87795174  0.49756643    -0.12800
C948        C  0.15899764  0.85193338  0.49718635     0.00850
C949        C  0.14918333  0.81735237  0.49316616    -0.11330
C950        C  0.11417028  0.80839000  0.99080522     0.03340
C951        C  0.08862597  0.83427605  0.99197738    -0.10750
H952        H  0.14153896  0.90463308  0.50069754     0.08930
H953        H  0.16888076  0.79717083  0.49311702     0.06460
H954        H  0.06153985  0.82686648  0.99081345     0.06310
C955        C  0.36726124  0.98074274  0.88262162     0.03350
C956        C  0.33196015  0.97608028  0.89143162    -0.12800
C957        C  0.30666659  0.97226107  0.86546507     0.00850
C958        C  0.31685436  0.97312963  0.83077767    -0.11330
C959        C  0.35176937  0.97612716  0.82148822     0.03340
C960        C  0.37688133  0.98073364  0.84732616    -0.10750
H961        H  0.32417874  0.97471660  0.91832723     0.08930
H962        H  0.29736743  0.97071253  0.81060675     0.06460
H963        H  0.40385879  0.98327767  0.83984069     0.06310
C964        C  0.09763622  0.97378303  0.88289908     0.03350
C965        C  0.13335300  0.97138397  0.89116133    -0.12800
C966        C  0.15813245  0.96653959  0.86489901     0.00850
C967        C  0.14714679  0.96620016  0.83040186    -0.11330
C968        C  0.11186663  0.96664028  0.82148726     0.03340
C969        C  0.08715033  0.97007294  0.84797082    -0.10750
H970        H  0.14190719  0.97279535  0.91785673     0.08930
H971        H  0.16654016  0.96520077  0.81008493     0.06460
H972        H  0.05982755  0.96948609  0.84144968     0.06310
C973        C  0.09821457  0.98527857  0.61438331     0.03350
C974        C  0.08905813  0.97982015  0.64931783    -0.12800
C975        C  0.11468791  0.97876301  0.67506861     0.00850
C976        C  0.14934840  0.98485063  0.66608689    -0.11330
C977        C  0.15890651  0.99017366  0.63161716     0.03340
C978        C  0.13345170  0.99000466  0.60573203    -0.10750
H979        H  0.06225999  0.97528664  0.65645214     0.08930
H980        H  0.16925028  0.98447770  0.68599543     0.06460
H981        H  0.14120174  0.99382127  0.57906038     0.06310
C982        C  0.36734279  0.98410402  0.61383982     0.03350
C983        C  0.37694013  0.98038606  0.64888572    -0.12800
C984        C  0.35159483  0.98006932  0.67477939     0.00850
C985        C  0.31658123  0.98390791  0.66583793    -0.11330
C986        C  0.30656467  0.98775350  0.63124429     0.03340
C987        C  0.33187806  0.98761408  0.60522704    -0.10750
H988        H  0.40397533  0.97739617  0.65619438     0.08930
H989        H  0.29695418  0.98380710  0.68596723     0.06460
H990        H  0.32383962  0.99061610  0.57850288     0.06310
C991        C  0.48556825  0.60166179  0.88403672     0.03350
C992        C  0.48971776  0.63676511  0.89359706    -0.12800
C993        C  0.49251434  0.66245211  0.86817468     0.00850
C994        C  0.49013404  0.65328993  0.83321699    -0.11330
C995        C  0.48582494  0.61885555  0.82325448     0.03340
C996        C  0.48369991  0.59300161  0.84852735    -0.10750
H997        H  0.49147209  0.64417361  0.92061338     0.08930
H998        H  0.49169332  0.67318232  0.81352064     0.06460
H999        H  0.48041061  0.56636161  0.84041091     0.06310
C1000       C  0.48802403  0.87014530  0.88349500     0.03350
C1001       C  0.49354884  0.83528411  0.89295342    -0.12800
C1002       C  0.49565141  0.80937153  0.86759247     0.00850
C1003       C  0.49207758  0.81822037  0.83270801    -0.11330
C1004       C  0.48565073  0.85248643  0.82282555     0.03340
C1005       C  0.48428611  0.87851777  0.84813222    -0.10750
H1006       H  0.49603555  0.82807720  0.91993750     0.08930
H1007       H  0.49303993  0.79805785  0.81312815     0.06460
H1008       H  0.47932991  0.90497031  0.84023888     0.06310
C1009       C  0.48273973  0.60061703  0.61474364     0.03350
C1010       C  0.48216738  0.59199126  0.65031457    -0.12800
C1011       C  0.48020300  0.61813037  0.67558301     0.00850
C1012       C  0.47931352  0.65275724  0.66546893    -0.11330
C1013       C  0.48020223  0.66177270  0.63055104     0.03340
C1014       C  0.48206863  0.63587107  0.60520141    -0.10750
H1015       H  0.48271606  0.56518683  0.65844201     0.08930
H1016       H  0.47803029  0.67294567  0.68501772     0.06460
H1017       H  0.48250769  0.64335118  0.57819415     0.06310
C1018       C  0.48137387  0.86985416  0.61427972     0.03350
C1019       C  0.47950529  0.87898369  0.64973015    -0.12800
C1020       C  0.47824482  0.85327170  0.67533863     0.00850
C1021       C  0.47892119  0.81845623  0.66540079    -0.11330
C1022       C  0.48006611  0.80888284  0.63056765     0.03340
C1023       C  0.48172708  0.83445496  0.60500404    -0.10750
H1024       H  0.47852285  0.90592563  0.65748861     0.08930
H1025       H  0.47810473  0.79842945  0.68501149     0.06460
H1026       H  0.48257163  0.82665311  0.57805386     0.06310
O1027       O  0.42652244  0.88737746  0.99819841    -0.86270
O1028       O  0.42579560  0.58334632  0.99968330    -0.86440
O1029       O  0.38402211  0.98467422  0.55467928    -0.88110
O1030       O  0.38394915  0.98443278  0.94191139    -0.86860
O1031       O  0.42629125  0.98434798  0.90020669    -0.86450
O1032       O  0.42633078  0.98460374  0.59654264    -0.87820
O1033       O  0.38334522  0.54190676  0.99973968    -0.86300
O1034       O  0.38420011  0.92933908  0.99870017    -0.85890
Zr1035     Zr  0.41252491  0.98566943  0.99840181     2.84310
O1036       O  0.44722108  0.52092556  0.96347978    -1.07860
O1037       O  0.44739285  0.95043757  0.53367667    -1.08590
C1038       C  0.39445277  0.89742285  0.99839776     1.06840
C1039       C  0.39365570  0.57369414  0.00031215     1.06780
C1040       C  0.39429309  0.98444089  0.58654728     1.09760
C1041       C  0.39421206  0.98360623  0.91003980     1.07540
H1042       H  0.43305973  0.53467074  0.54833244     0.33100
O1043       O  0.44750255  0.52026655  0.53374363    -1.28820
H1044       H  0.43345366  0.93593344  0.94893557     0.32770
O1045       O  0.44768316  0.95051512  0.96344836    -1.30490
O1046       O  0.03915221  0.58332411  0.00106964    -0.86270
O1047       O  0.03906374  0.88698184  0.99718080    -0.87760
O1048       O  0.48310743  0.54131070  0.59763342    -0.86340
O1049       O  0.48364207  0.54231483  0.90064422    -0.86390
O1050       O  0.48453440  0.92931077  0.90035365    -0.86100
O1051       O  0.48225524  0.92899217  0.59718758    -0.85910
O1052       O  0.08141942  0.98524293  0.55520058    -0.86280
O1053       O  0.08163875  0.98088236  0.94225343    -0.85740
O1054       O  0.03916291  0.98529117  0.59700369    -0.86810
O1055       O  0.03905417  0.98094095  0.90068808    -0.85960
O1056       O  0.48303518  0.58313717  0.55564453    -0.86360
O1057       O  0.48239186  0.88706810  0.55510773    -0.86090
O1058       O  0.48513762  0.88752084  0.94239609    -0.85740
O1059       O  0.48346487  0.58408320  0.94294517    -0.86140
O1060       O  0.08174284  0.54157812  0.00054339    -0.86440
O1061       O  0.08132593  0.92857724  0.99764535    -0.87780
Zr1062     Zr  0.48269865  0.55509798  0.99893376     2.83100
Zr1063     Zr  0.48281748  0.91578809  0.99877934     2.83500
Zr1064     Zr  0.48281648  0.98516205  0.56847641     2.84090
Zr1065     Zr  0.48271434  0.98571187  0.92888759     2.83360
Zr1066     Zr  0.05314666  0.98521682  0.99872700     2.84220
O1067       O  0.01751361  0.95082563  0.96409392    -1.08350
O1068       O  0.01780517  0.52005548  0.53376827    -1.07850
C1069       C  0.07129580  0.57345167  0.00160160     1.06810
C1070       C  0.07108260  0.89677688  0.99677609     1.09430
C1071       C  0.48312987  0.57321169  0.58761305     1.06980
C1072       C  0.48396489  0.57423026  0.91092926     1.07340
C1073       C  0.48570761  0.89745914  0.91048088     1.06930
C1074       C  0.48208510  0.89706339  0.58710215     1.06480
C1075       C  0.07118817  0.98532803  0.58706839     1.06900
C1076       C  0.07112506  0.97897442  0.91046015     1.06420
H1077       H  0.03283641  0.93546922  0.54824258     0.33090
O1078       O  0.01837589  0.95003498  0.53386741    -1.29450
H1079       H  0.03298810  0.53480019  0.94921267     0.33120
O1080       O  0.01834222  0.52057657  0.96356084    -1.30830
C1081       C  0.47786667  0.77167446  0.62194504     0.00060
C1082       C  0.00823509  0.75360915  0.61283808    -0.11810
C1083       C  0.00904793  0.71730839  0.61324571     0.02300
C1084       C  0.47873137  0.69881819  0.62158088    -0.00020
C1085       C  0.44785295  0.71689209  0.62845080    -0.11750
C1086       C  0.44736683  0.75301794  0.62937998     0.02180
H1087       H  0.03197328  0.76782653  0.60849247     0.15160
H1088       H  0.42479696  0.70268564  0.63586136     0.15160
C1089       C  0.41640111  0.77029837  0.64170357     0.36820
C1090       C  0.04194439  0.69961819  0.60937358     0.36720
N1091       N  0.39199344  0.78423405  0.65242421    -0.43530
N1092       N  0.06815049  0.68498849  0.60710967    -0.43520
C1093       C  0.47896342  0.85998645  0.78583569     0.00060
C1094       C  0.50298399  0.87955385  0.76693837    -0.11810
C1095       C  0.50163771  0.88026116  0.73059193     0.02300
C1096       C  0.47573832  0.86140446  0.71288402    -0.00020
C1097       C  0.44977706  0.84483867  0.73213474    -0.11750
C1098       C  0.45129033  0.84380461  0.76823227     0.02180
H1099       H  0.52418985  0.89220520  0.78039087     0.15160
H1100       H  0.42942246  0.83077735  0.71876188     0.15160
C1101       C  0.42517732  0.82439243  0.78659556     0.36820
C1102       C  0.52875936  0.89783235  0.71201304     0.36720
N1103       N  0.40442906  0.80868692  0.80135513    -0.43530
N1104       N  0.55030652  0.91178722  0.69668172    -0.43520
C1105       C  0.48315617  0.61093013  0.78594611     0.00060
C1106       C  0.45160637  0.61796728  0.76919220    -0.11810
C1107       C  0.44968950  0.61870063  0.73303921     0.02300
C1108       C  0.47930815  0.61045683  0.71304520    -0.00020
C1109       C  0.51045314  0.60164990  0.72983994    -0.11750
C1110       C  0.51284502  0.60291351  0.76605731     0.02180
H1111       H  0.42908167  0.62538766  0.78440834     0.15160
H1112       H  0.03362117  0.59676001  0.71459434     0.15160
C1113       C  0.04661559  0.59954981  0.78205001     0.36820
C1114       C  0.41785961  0.63059298  0.71704279     0.36720
N1115       N  0.07367736  0.59707519  0.79493079    -0.43530
N1116       N  0.39246719  0.64028791  0.70415345    -0.43520
C1117       C  0.49766545  0.69938299  0.87701336     0.00060
C1118       C  0.47012085  0.71822002  0.89179195    -0.11810
C1119       C  0.47034845  0.75453492  0.89159321     0.02300
C1120       C  0.49856009  0.77229566  0.87675394    -0.00020
C1121       C  0.02735585  0.75342824  0.86480767    -0.11750
C1122       C  0.02713523  0.71723921  0.86486926     0.02180
H1123       H  0.44729273  0.70467320  0.90090126     0.15160
H1124       H  0.04911619  0.76700792  0.85343654     0.15160
C1125       C  0.05643855  0.69889434  0.85021687     0.36820
C1126       C  0.44002059  0.77320341  0.90335337     0.36720
N1127       N  0.07975221  0.68407407  0.83830875    -0.43530
N1128       N  0.41611890  0.78908941  0.91232719    -0.43520
C1129       C  0.19615054  0.99387564  0.62335614     0.00060
C1130       C  0.21373585  0.96598649  0.60780210    -0.11810
C1131       C  0.25014690  0.96466422  0.60765320     0.02300
C1132       C  0.26922410  0.99165624  0.62318193    -0.00020
C1133       C  0.25159627  0.52079095  0.63611693    -0.11750
C1134       C  0.21530229  0.52212911  0.63621498     0.02180
H1135       H  0.19905521  0.94414789  0.59802122     0.15160
H1136       H  0.26623567  0.54171315  0.64780502     0.15160
C1137       C  0.19816535  0.55200315  0.65104728     0.36820
C1138       C  0.26727483  0.93413873  0.59421227     0.36720
N1139       N  0.18436515  0.57594358  0.66285434    -0.43530
N1140       N  0.28115603  0.90972013  0.58353577    -0.43520
C1141       C  0.10268043  0.96344346  0.78404149     0.00060
C1142       C  0.12167073  0.93946526  0.76412381    -0.11810
C1143       C  0.12374144  0.94257608  0.72825206     0.02300
C1144       C  0.10630991  0.96998024  0.71144488    -0.00020
C1145       C  0.08306238  0.99067676  0.73052895    -0.11750
C1146       C  0.08069637  0.98720637  0.76668742     0.02180
H1147       H  0.13696202  0.91960596  0.77691850     0.15220
H1148       H  0.06815777  0.51067158  0.71749792     0.15160
C1149       C  0.05601435  0.50843236  0.78519271     0.36820
C1150       C  0.14492797  0.91801264  0.70935996     0.36720
N1151       N  0.03542751  0.52433115  0.80027052    -0.43530
N1152       N  0.16191307  0.89838444  0.69419502    -0.43520
C1153       C  0.36091177  0.97314250  0.78435853     0.00060
C1154       C  0.37614793  0.00124496  0.76720980    -0.11810
C1155       C  0.37647121  0.00246389  0.73087643     0.02300
C1156       C  0.36080328  0.97569479  0.71162916    -0.00020
C1157       C  0.34890558  0.94617721  0.72871933    -0.11750
C1158       C  0.34938828  0.94444942  0.76478467     0.02180
H1159       H  0.38564409  0.52311211  0.78205002     0.15160
H1160       H  0.33764087  0.92516129  0.71386312     0.15160
C1161       C  0.33637967  0.91360598  0.78126281     0.36820
C1162       C  0.39095667  0.53212910  0.71368555     0.36720
N1163       N  0.32596493  0.88898017  0.79460135    -0.43530
N1164       N  0.40273114  0.55531795  0.69902759    -0.43520
C1165       C  0.26929758  0.96650465  0.87317145     0.00060
C1166       C  0.25240186  0.93916946  0.85619655    -0.11810
C1167       C  0.21620957  0.93699836  0.85577330     0.02300
C1168       C  0.19596496  0.96289141  0.87224345    -0.00020
C1169       C  0.21290178  0.98828327  0.89197267    -0.11750
C1170       C  0.24932567  0.99011578  0.89278871     0.02180
H1171       H  0.26760049  0.92026483  0.84184201     0.15160
H1172       H  0.19766081  0.00818252  0.90452930     0.15160
C1173       C  0.26558306  0.01804191  0.91139386     0.36820
C1174       C  0.20057381  0.90874118  0.83687002     0.36720
N1175       N  0.27945372  0.04010528  0.92610997    -0.43530
N1176       N  0.18817962  0.88624084  0.82144059    -0.43520
C1177       C  0.10476990  0.69865449  0.99450771     0.00060
C1178       C  0.09706185  0.71852285  0.52390774    -0.11810
C1179       C  0.09733970  0.75467050  0.52247757     0.02300
C1180       C  0.10506256  0.77136453  0.99104729    -0.00020
C1181       C  0.11052166  0.75151341  0.96104605    -0.11750
C1182       C  0.11051269  0.71527783  0.96259939     0.02180
H1183       H  0.09363148  0.70578621  0.54854317     0.15160
H1184       H  0.11695594  0.76431076  0.93695128     0.15160
C1185       C  0.11909808  0.69566371  0.93189919     0.36820
C1186       C  0.09339358  0.77412822  0.55421828     0.36720
N1187       N  0.12616013  0.67981139  0.90741872    -0.43530
N1188       N  0.09073546  0.79002796  0.57951438    -0.43520
C1189       C  0.26931622  0.61285346  0.02007006     0.00060
C1190       C  0.25151780  0.58953358  0.99862511    -0.11810
C1191       C  0.21507025  0.58874615  0.99798212     0.02300
C1192       C  0.19580432  0.61149172  0.01931676    -0.00020
C1193       C  0.21353182  0.63166792  0.54371055    -0.11750
C1194       C  0.24987572  0.63236979  0.54438705     0.02180
H1195       H  0.26604346  0.57378513  0.98057363     0.15160
H1196       H  0.19900554  0.64853922  0.56097504     0.15160
C1197       C  0.26670121  0.65464382  0.56933186     0.36820
C1198       C  0.19805109  0.56662826  0.97320420     0.36720
N1199       N  0.28019989  0.67265850  0.58913882    -0.43530
N1200       N  0.18360281  0.54901950  0.95376055    -0.43520
C1201       C  0.19607970  0.85995480  0.50238273     0.00060
C1202       C  0.21436067  0.87714625  0.97618431    -0.11810
C1203       C  0.25077845  0.87790420  0.97666032     0.02300
C1204       C  0.26906406  0.86139584  0.50375158    -0.00020
C1205       C  0.25054196  0.84711522  0.53144400    -0.11750
C1206       C  0.21431709  0.84630818  0.53099252     0.02180
H1207       H  0.20036382  0.88772428  0.95419944     0.15160
H1208       H  0.26453557  0.83476880  0.55250150     0.15160
C1209       C  0.19643087  0.82978788  0.55930636     0.36820
C1210       C  0.26894604  0.89258975  0.94761464     0.36720
N1211       N  0.18206220  0.81649452  0.58191801    -0.43530
N1212       N  0.28406141  0.90407538  0.92452397    -0.43520
C1213       C  0.36041799  0.77216911  0.99864617     0.00060
C1214       C  0.36269035  0.75318201  0.96774562    -0.11810
C1215       C  0.36348267  0.71693486  0.96828175     0.02300
C1216       C  0.36118103  0.69945757  0.00016738    -0.00020
C1217       C  0.36047228  0.71828386  0.53106607    -0.11750
C1218       C  0.35996849  0.75441624  0.53051205     0.02180
H1219       H  0.36124877  0.76657591  0.94320311     0.15160
H1220       H  0.35792084  0.70485770  0.55556145     0.15160
C1221       C  0.35512668  0.77301668  0.56259786     0.36820
C1222       C  0.36392500  0.69825859  0.93585858     0.36720
N1223       N  0.35050527  0.78838027  0.58792663    -0.43530
N1224       N  0.36437966  0.68333369  0.90984146    -0.43520
C1225       C  0.86743984  0.37001924  0.49823316     0.03350
C1226       C  0.87692602  0.33469879  0.49665327    -0.12800
C1227       C  0.85139235  0.30905524  0.49718958     0.00850
C1228       C  0.81645390  0.31857241  0.99925287    -0.11330
C1229       C  0.80647146  0.35333791  0.00097896     0.03340
C1230       C  0.83188225  0.37917776  0.00029907    -0.10750
H1231       H  0.90400098  0.32697270  0.49557956     0.08930
H1232       H  0.79684729  0.29851582  0.99996740     0.06460
H1233       H  0.82386290  0.40605019  0.00188430     0.06310
C1234       C  0.86659467  0.10116078  0.50245440     0.03350
C1235       C  0.87625220  0.13610272  0.49871323    -0.12800
C1236       C  0.85144064  0.16241629  0.50177900     0.00850
C1237       C  0.81683046  0.15414027  0.50828575    -0.11330
C1238       C  0.80653571  0.11979791  0.51318622     0.03340
C1239       C  0.83147035  0.09321349  0.50961667    -0.10750
H1240       H  0.90302179  0.14305696  0.49377945     0.08930
H1241       H  0.79775861  0.17485072  0.50960628     0.06460
H1242       H  0.82359569  0.06657902  0.51308210     0.06310
C1243       C  0.59792055  0.10094659  0.50359444     0.03350
C1244       C  0.63285747  0.09275626  0.51148579    -0.12800
C1245       C  0.65817974  0.11886922  0.51297146     0.00850
C1246       C  0.64819445  0.15322553  0.50686280    -0.11330
C1247       C  0.61371360  0.16181408  0.49945807     0.03340
C1248       C  0.58859631  0.13583330  0.49786947    -0.10750
H1249       H  0.64036209  0.06622466  0.51668771     0.08930
H1250       H  0.66748808  0.17357566  0.50756533     0.06460
H1251       H  0.56196215  0.14292872  0.49202250     0.06310
C1252       C  0.59809223  0.36937809  0.99519300     0.03350
C1253       C  0.63356927  0.37797361  0.99756247    -0.12800
C1254       C  0.65898366  0.35195828  0.99718424     0.00850
C1255       C  0.64917084  0.31737670  0.99317156    -0.11330
C1256       C  0.61418351  0.30836664  0.49079804     0.03340
C1257       C  0.58864137  0.33425407  0.49197181    -0.10750
H1258       H  0.64152529  0.40465525  0.00068852     0.08930
H1259       H  0.66886949  0.29719638  0.99312396     0.06460
H1260       H  0.56155558  0.32684371  0.49080574     0.06310
C1261       C  0.86722827  0.48067235  0.38261401     0.03350
C1262       C  0.83192537  0.47603027  0.39142016    -0.12800
C1263       C  0.80663351  0.47223204  0.36545196     0.00850
C1264       C  0.81682239  0.47310036  0.33076405    -0.11330
C1265       C  0.85173980  0.47609138  0.32147776     0.03340
C1266       C  0.87685137  0.48067512  0.34731970    -0.10750
H1267       H  0.82413894  0.47466799  0.41831460     0.08930
H1268       H  0.79733511  0.47069263  0.31059240     0.06460
H1269       H  0.90383073  0.48320998  0.33983754     0.06310
C1270       C  0.59760307  0.47377984  0.38290718     0.03350
C1271       C  0.63332008  0.47138912  0.39117362    -0.12800
C1272       C  0.65810274  0.46654940  0.36491346     0.00850
C1273       C  0.64712178  0.46620816  0.33041568    -0.11330
C1274       C  0.61184340  0.46664146  0.32149697     0.03340
C1275       C  0.58712263  0.47006988  0.34797701    -0.10750
H1276       H  0.64187175  0.47280028  0.41786987     0.08930
H1277       H  0.66651823  0.46520909  0.31010145     0.06460
H1278       H  0.55980095  0.46947873  0.34145146     0.06310
C1279       C  0.59825173  0.48528710  0.11439483     0.03350
C1280       C  0.58908849  0.47982863  0.14932730    -0.12800
C1281       C  0.61471355  0.47876608  0.17508216     0.00850
C1282       C  0.64937724  0.48484701  0.16610585    -0.11330
C1283       C  0.65894078  0.49016986  0.13163720     0.03340
C1284       C  0.63349009  0.49000682  0.10574889    -0.10750
H1285       H  0.56228815  0.47530050  0.15645706     0.08930
H1286       H  0.66927618  0.48447098  0.18601717     0.06460
H1287       H  0.64124429  0.49382543  0.07907872     0.06310
C1288       C  0.86738218  0.48418130  0.11383441     0.03350
C1289       C  0.87697509  0.48043729  0.14887943    -0.12800
C1290       C  0.85162464  0.48008342  0.17476854     0.00850
C1291       C  0.81661139  0.48391139  0.16582360    -0.11330
C1292       C  0.80659903  0.48778351  0.13123273     0.03340
C1293       C  0.83191623  0.48768019  0.10521904    -0.10750
H1294       H  0.90401048  0.47745565  0.15619039     0.08930
H1295       H  0.79698059  0.48378502  0.18594906     0.06460
H1296       H  0.82387955  0.49069921  0.07849634     0.06310
C1297       C  0.98550842  0.10160165  0.38404449     0.03350
C1298       C  0.98967234  0.13670284  0.39361188    -0.12800
C1299       C  0.99249568  0.16239253  0.36819385     0.00850
C1300       C  0.99012540  0.15323546  0.33323494    -0.11330
C1301       C  0.98580218  0.11880590  0.32326534     0.03340
C1302       C  0.98365146  0.09294827  0.34853264    -0.10750
H1303       H  0.99141881  0.14410655  0.42062996     0.08930
H1304       H  0.99170129  0.17312959  0.31354160     0.06460
H1305       H  0.98035167  0.06631136  0.34041049     0.06310
C1306       C  0.98802787  0.37008520  0.38348318     0.03350
C1307       C  0.99354292  0.33522216  0.39293663    -0.12800
C1308       C  0.99563690  0.30931248  0.36757292     0.00850
C1309       C  0.99206797  0.31816751  0.33268833    -0.11330
C1310       C  0.98565590  0.35243866  0.32281069     0.03340
C1311       C  0.98429696  0.37846504  0.34812195    -0.10750
H1312       H  0.99602685  0.32801102  0.41991984     0.08930
H1313       H  0.99302495  0.29800786  0.31310546     0.06460
H1314       H  0.97934916  0.40492037  0.34023271     0.06310
C1315       C  0.98280469  0.10067714  0.11475290     0.03350
C1316       C  0.98221618  0.09204436  0.15032105    -0.12800
C1317       C  0.98021828  0.11817657  0.17559307     0.00850
C1318       C  0.97930996  0.15280543  0.16548499    -0.11330
C1319       C  0.98021779  0.16182731  0.13056832     0.03340
C1320       C  0.98211861  0.13593124  0.10521614    -0.10750
H1321       H  0.98277802  0.06523864  0.15844386     0.08930
H1322       H  0.97800228  0.17298945  0.18503663     0.06460
H1323       H  0.98256923  0.14341566  0.07821025     0.06310
C1324       C  0.98136297  0.36991360  0.11426842     0.03350
C1325       C  0.97949644  0.37903564  0.14972155    -0.12800
C1326       C  0.97823461  0.35331719  0.17532436     0.00850
C1327       C  0.97891116  0.31850485  0.16537911    -0.11330
C1328       C  0.98004889  0.30893758  0.13054502     0.03340
C1329       C  0.98170988  0.33451494  0.10498565    -0.10750
H1330       H  0.97851827  0.40597594  0.15748613     0.08930
H1331       H  0.97809868  0.29847420  0.18498624     0.06460
H1332       H  0.98255235  0.32671796  0.07803404     0.06310
O1333       O  0.92655128  0.38720851  0.49818894    -0.86270
O1334       O  0.92563656  0.08319723  0.49966650    -0.86440
O1335       O  0.88406822  0.48481074  0.05467594    -0.88110
O1336       O  0.88391047  0.48430298  0.44190684    -0.86860
O1337       O  0.92625312  0.48427276  0.40020280    -0.86450
O1338       O  0.92637427  0.48468384  0.09654137    -0.87820
O1339       O  0.88322289  0.04172031  0.49973289    -0.86300
O1340       O  0.88421485  0.42915530  0.49869393    -0.85890
Zr1341     Zr  0.91247409  0.48552446  0.49840260     2.84310
O1342       O  0.94713782  0.02081413  0.46347989    -1.07860
O1343       O  0.94741741  0.45054670  0.03367047    -1.08590
C1344       C  0.89447751  0.39724075  0.49838829     1.06840
C1345       C  0.89350436  0.07351633  0.50029528     1.06780
C1346       C  0.89433653  0.48454324  0.08654437     1.09760
C1347       C  0.89417532  0.48351131  0.41003510     1.07540
H1348       H  0.93314970  0.03478929  0.04833818     0.33100
O1349       O  0.94758265  0.02037596  0.03374781    -1.28820
H1350       H  0.93344156  0.43582244  0.44893001     0.32770
O1351       O  0.94766113  0.45041047  0.46344528    -1.30490
O1352       O  0.53900013  0.08330654  0.50107072    -0.86270
O1353       O  0.53907588  0.38693993  0.49718266    -0.87760
O1354       O  0.98316768  0.04137631  0.09763750    -0.86340
O1355       O  0.98358561  0.04224884  0.40064633    -0.86390
O1356       O  0.98451505  0.42924484  0.40034861    -0.86100
O1357       O  0.98227233  0.42905720  0.09718424    -0.85910
O1358       O  0.58146487  0.48525991  0.05521003    -0.86280
O1359       O  0.58159550  0.48087049  0.44225978    -0.85740
O1360       O  0.53920442  0.48532997  0.09701000    -0.86810
O1361       O  0.53901419  0.48090151  0.40069204    -0.85960
O1362       O  0.98315139  0.08320645  0.05565201    -0.86360
O1363       O  0.98238339  0.38713908  0.05509933    -0.86090
O1364       O  0.98514849  0.38745054  0.44238707    -0.85740
O1365       O  0.98335589  0.08401533  0.44294856    -0.86140
O1366       O  0.58160366  0.04157176  0.50054786    -0.86440
O1367       O  0.58131698  0.42855638  0.49764502    -0.87780
Zr1368     Zr  0.98258145  0.05502035  0.49893073     2.83100
Zr1369     Zr  0.98280880  0.41570119  0.49877854     2.83500
Zr1370     Zr  0.98286423  0.48523365  0.06847765     2.84090
Zr1371     Zr  0.98266785  0.48563887  0.42888762     2.83360
Zr1372     Zr  0.55308732  0.48517694  0.49872583     2.84220
O1373       O  0.51748123  0.45076339  0.46409152    -1.08350
O1374       O  0.51788713  0.02010864  0.03377795    -1.07850
C1375       C  0.57114463  0.07344110  0.50160845     1.06810
C1376       C  0.57108971  0.39675000  0.49677685     1.09430
C1377       C  0.98321439  0.07327727  0.08761951     1.06980
C1378       C  0.98388670  0.07416502  0.41093274     1.07340
C1379       C  0.98570728  0.39739332  0.41047282     1.06930
C1380       C  0.98208407  0.39712910  0.08709520     1.06480
C1381       C  0.57122995  0.48534953  0.08707699     1.06900
C1382       C  0.57108594  0.47895611  0.41046589     1.06420
H1383       H  0.53286244  0.43551389  0.04824560     0.33090
O1384       O  0.51841244  0.45009121  0.03387057    -1.29450
H1385       H  0.53289601  0.03475297  0.44922539     0.33120
O1386       O  0.51825797  0.02051974  0.46357044    -1.30830
C1387       C  0.97784898  0.27172855  0.12192291     0.00060
C1388       C  0.50821638  0.25366692  0.11280420    -0.11810
C1389       C  0.50904059  0.21736643  0.11323276     0.02300
C1390       C  0.97873499  0.19887214  0.12159736    -0.00020
C1391       C  0.94785600  0.21694004  0.12847706    -0.11750
C1392       C  0.94736027  0.25306569  0.12939029     0.02180
H1393       H  0.53194785  0.26788873  0.10843718     0.15160
H1394       H  0.92480887  0.20273031  0.13590869     0.15160
C1395       C  0.91640200  0.27033889  0.14174205     0.36820
C1396       C  0.54194021  0.19968315  0.10935604     0.36720
N1397       N  0.89200111  0.28426565  0.15248939    -0.43530
N1398       N  0.56814808  0.18505687  0.10709115    -0.43520
C1399       C  0.97897303  0.35995410  0.28582273     0.00060
C1400       C  0.00299387  0.37953160  0.26693543    -0.11810
C1401       C  0.00163890  0.38026931  0.23058978     0.02300
C1402       C  0.97572991  0.36143483  0.21287300    -0.00020
C1403       C  0.94976838  0.34486068  0.23211674    -0.11750
C1404       C  0.95129113  0.34379474  0.26821291     0.02180
H1405       H  0.02420481  0.39216878  0.28039332     0.15160
H1406       H  0.92940728  0.33081488  0.21873727     0.15160
C1407       C  0.92517578  0.32437683  0.28656667     0.36820
C1408       C  0.02876027  0.39784787  0.21201761     0.36720
N1409       N  0.90442541  0.30866713  0.30131878    -0.43530
N1410       N  0.05030675  0.41180855  0.19669069    -0.43520
C1411       C  0.98314295  0.11089496  0.28595378     0.00060
C1412       C  0.95159626  0.11793931  0.26919661    -0.11810
C1413       C  0.94969059  0.11870739  0.23304381     0.02300
C1414       C  0.97931726  0.11048883  0.21305195    -0.00020
C1415       C  0.01045930  0.10167440  0.22984785    -0.11750
C1416       C  0.01284058  0.10290738  0.26606647     0.02180
H1417       H  0.92906548  0.12534146  0.28441254     0.15160
H1418       H  0.53363228  0.09680213  0.21460478     0.15160
C1419       C  0.54660815  0.09954364  0.28206478     0.36820
C1420       C  0.91786203  0.13060440  0.21704833     0.36720
N1421       N  0.57366813  0.09706890  0.29494928    -0.43530
N1422       N  0.89247009  0.14030253  0.20416044    -0.43520
C1423       C  0.99765563  0.19932318  0.37703288     0.00060
C1424       C  0.97011601  0.21816546  0.39181459    -0.11810
C1425       C  0.97034100  0.25448067  0.39159973     0.02300
C1426       C  0.99854310  0.27223646  0.37673561    -0.00020
C1427       C  0.52733550  0.25336595  0.36478796    -0.11750
C1428       C  0.52711970  0.21717711  0.36487061     0.02180
H1429       H  0.94729225  0.20462146  0.40093904     0.15160
H1430       H  0.54909118  0.26694206  0.35340363     0.15160
C1431       C  0.55642213  0.19882924  0.35022006     0.36820
C1432       C  0.94002128  0.27315191  0.40337779     0.36720
N1433       N  0.57973592  0.18400799  0.33831340    -0.43530
N1434       N  0.91612540  0.28903642  0.41237028    -0.43520
C1435       C  0.69618436  0.49387371  0.12337754     0.00060
C1436       C  0.71377211  0.46598679  0.10782229    -0.11810
C1437       C  0.75018332  0.46467614  0.10765932     0.02300
C1438       C  0.76925774  0.49167830  0.12317288    -0.00020
C1439       C  0.75162582  0.02080936  0.13611063    -0.11750
C1440       C  0.71533156  0.02213538  0.13622432     0.02180
H1441       H  0.69909444  0.44414250  0.09804976     0.15160
H1442       H  0.76626320  0.04173740  0.14779069     0.15160
C1443       C  0.69819064  0.05200650  0.15105801     0.36820
C1444       C  0.76731654  0.43415301  0.09422024     0.36720
N1445       N  0.68438697  0.07594451  0.16286600    -0.43530
N1446       N  0.78120268  0.40973617  0.08354624    -0.43520
C1447       C  0.60266508  0.46344161  0.28405020     0.00060
C1448       C  0.62166042  0.43946273  0.26413804    -0.11810
C1449       C  0.62374587  0.44257674  0.22826748     0.02300
C1450       C  0.60632490  0.46998495  0.21145643    -0.00020
C1451       C  0.58307121  0.49068180  0.23053336    -0.11750
C1452       C  0.58068999  0.48720757  0.26669040     0.02180
H1453       H  0.63694529  0.41960148  0.27693723     0.15220
H1454       H  0.56817284  0.01067865  0.21749851     0.15160
C1455       C  0.55600143  0.00843115  0.28518975     0.36820
C1456       C  0.64493455  0.41801110  0.20938071     0.36720
N1457       N  0.53540959  0.02432675  0.30026410    -0.43530
N1458       N  0.66192077  0.39838102  0.19421945    -0.43520
C1459       C  0.86088919  0.47312199  0.28434850     0.00060
C1460       C  0.87613558  0.50122873  0.26721545    -0.11810
C1461       C  0.87647970  0.50245721  0.23088258     0.02300
C1462       C  0.86082438  0.47569242  0.21161907    -0.00020
C1463       C  0.84891594  0.44617064  0.22869570    -0.11750
C1464       C  0.84937575  0.44443473  0.26476123     0.02180
H1465       H  0.88562473  0.02309140  0.28206681     0.15160
H1466       H  0.83765859  0.42515883  0.21382806     0.15160
C1467       C  0.83635827  0.41358778  0.28122543     0.36820
C1468       C  0.89097067  0.03212909  0.21370784     0.36720
N1469       N  0.82593751  0.38895926  0.29455423    -0.43530
N1470       N  0.90274910  0.05532317  0.19906137    -0.43520
C1471       C  0.76926534  0.46649573  0.37316433     0.00060
C1472       C  0.75236160  0.43915150  0.35621484    -0.11810
C1473       C  0.71616922  0.43698878  0.35580087     0.02300
C1474       C  0.69593384  0.46289792  0.37225813    -0.00020
C1475       C  0.71288004  0.48830660  0.39195822    -0.11750
C1476       C  0.74930438  0.49013245  0.39276267     0.02180
H1477       H  0.76755376  0.42023423  0.34186984     0.15160
H1478       H  0.69764749  0.50822611  0.40449463     0.15160
C1479       C  0.76557218  0.51808201  0.41132628     0.36820
C1480       C  0.70052396  0.40872841  0.33690997     0.36720
N1481       N  0.77944613  0.54016799  0.42600616    -0.43530
N1482       N  0.68812385  0.38622637  0.32148778    -0.43520
C1483       C  0.60471776  0.19862925  0.49450834     0.00060
C1484       C  0.59711799  0.21853809  0.02391443    -0.11810
C1485       C  0.59736460  0.25468574  0.02248704     0.02300
C1486       C  0.60507098  0.27134105  0.49104159    -0.00020
C1487       C  0.61053911  0.25148226  0.46104694    -0.11750
C1488       C  0.61049992  0.21524636  0.46260333     0.02180
H1489       H  0.59371941  0.20579592  0.04855152     0.15160
H1490       H  0.61699768  0.26427252  0.43695493     0.15160
C1491       C  0.61908730  0.19562392  0.43190912     0.36820
C1492       C  0.59342504  0.27413734  0.05423229     0.36720
N1493       N  0.62614988  0.17976684  0.40743186    -0.43530
N1494       N  0.59077125  0.29003142  0.07953239    -0.43520
C1495       C  0.76915082  0.11260776  0.52013642     0.00060
C1496       C  0.75132400  0.08928777  0.49871453    -0.11810
C1497       C  0.71487516  0.08855467  0.49806901     0.02300
C1498       C  0.69564336  0.11135462  0.51937906    -0.00020
C1499       C  0.71366874  0.13182931  0.04364852    -0.11750
C1500       C  0.75001285  0.13258963  0.04431936     0.02180
H1501       H  0.76582733  0.07350269  0.48067537     0.15160
H1502       H  0.69911970  0.14867218  0.06092158     0.15160
C1503       C  0.76680593  0.15488617  0.06926626     0.36820
C1504       C  0.69782484  0.06643615  0.47331078     0.36720
N1505       N  0.78027988  0.17292018  0.08907255    -0.43530
N1506       N  0.68335149  0.04882591  0.45388634    -0.43520
C1507       C  0.69606376  0.35999022  0.00237524     0.00060
C1508       C  0.71438670  0.37710041  0.47619194    -0.11810
C1509       C  0.75080582  0.37782193  0.47665811     0.02300
C1510       C  0.76904618  0.36150929  0.00376578    -0.00020
C1511       C  0.75053048  0.34721349  0.03145500    -0.11750
C1512       C  0.71430663  0.34636637  0.03099202     0.02180
H1513       H  0.70039455  0.38769655  0.45421288     0.15160
H1514       H  0.76453073  0.33488574  0.05251903     0.15160
C1515       C  0.69642909  0.32983394  0.05930415     0.36820
C1516       C  0.76897936  0.39250832  0.44761573     0.36720
N1517       N  0.68206711  0.31653082  0.08191426    -0.43530
N1518       N  0.78409454  0.40399862  0.42452691    -0.43520
C1519       C  0.86034870  0.27197234  0.49862270     0.00060
C1520       C  0.86262250  0.25298995  0.46771643    -0.11810
C1521       C  0.86333042  0.21673852  0.46823711     0.02300
C1522       C  0.86095003  0.19925222  0.50011192    -0.00020
C1523       C  0.86071784  0.21850011  0.03111619    -0.11750
C1524       C  0.86013434  0.25463153  0.03054541     0.02180
H1525       H  0.86124743  0.26639595  0.44317714     0.15160
H1526       H  0.85822265  0.20507978  0.05562062     0.15160
C1527       C  0.85529938  0.27324499  0.06262483     0.36820
C1528       C  0.86377545  0.19807397  0.43580703     0.36720
N1529       N  0.85067914  0.28862982  0.08794089    -0.43530
N1530       N  0.86423066  0.18315759  0.40978493    -0.43520
C1531       C  0.86741748  0.37020449  0.99824573     0.03350
C1532       C  0.87692489  0.33489329  0.99666591    -0.12800
C1533       C  0.85141407  0.30923565  0.99720813     0.00850
C1534       C  0.81643841  0.31842090  0.49922795    -0.11330
C1535       C  0.80648165  0.35319238  0.50095707     0.03340
C1536       C  0.83190956  0.37901197  0.50028351    -0.10750
H1537       H  0.90400385  0.32718123  0.99558850     0.08930
H1538       H  0.79681466  0.29838059  0.49993750     0.06460
H1539       H  0.82390441  0.40588831  0.50187254     0.06310
C1540       C  0.86677144  0.10136195  0.00248475     0.03350
C1541       C  0.87646002  0.13630019  0.99878677    -0.12800
C1542       C  0.85166222  0.16262731  0.00184928     0.00850
C1543       C  0.81703863  0.15437145  0.00831370    -0.11330
C1544       C  0.80671424  0.12003351  0.01317360     0.03340
C1545       C  0.83163487  0.09343581  0.00960752    -0.10750
H1546       H  0.90323817  0.14323928  0.99387686     0.08930
H1547       H  0.79797816  0.17509305  0.00962133     0.06460
H1548       H  0.82373688  0.06680392  0.01303898     0.06310
C1549       C  0.59807220  0.10096456  0.00357186     0.03350
C1550       C  0.63302700  0.09280292  0.01143182    -0.12800
C1551       C  0.65832414  0.11894820  0.01292168     0.00850
C1552       C  0.64829726  0.15329505  0.00683079    -0.11330
C1553       C  0.61380593  0.16184924  0.99944733     0.03340
C1554       C  0.58871539  0.13584609  0.99786535    -0.10750
H1555       H  0.64056126  0.06627497  0.01661025     0.08930
H1556       H  0.66756785  0.17366716  0.00753003     0.06460
H1557       H  0.56207221  0.14292344  0.99203781     0.06310
C1558       C  0.59810674  0.36935667  0.49519239     0.03350
C1559       C  0.63358395  0.37795174  0.49756642    -0.12800
C1560       C  0.65899764  0.35193338  0.49718635     0.00850
C1561       C  0.64918332  0.31735237  0.49316616    -0.11330
C1562       C  0.61417029  0.30839000  0.99080523     0.03340
C1563       C  0.58862598  0.33427605  0.99197738    -0.10750
H1564       H  0.64153895  0.40463308  0.50069753     0.08930
H1565       H  0.66888075  0.29717083  0.49311702     0.06460
H1566       H  0.56153986  0.32686648  0.99081345     0.06310
C1567       C  0.86726125  0.48074275  0.88262163     0.03350
C1568       C  0.83196016  0.47608028  0.89143162    -0.12800
C1569       C  0.80666660  0.47226107  0.86546508     0.00850
C1570       C  0.81685436  0.47312966  0.83077768    -0.11330
C1571       C  0.85176937  0.47612719  0.82148822     0.03340
C1572       C  0.87688133  0.48073366  0.84732617    -0.10750
H1573       H  0.82417875  0.47471658  0.91832724     0.08930
H1574       H  0.79736744  0.47071256  0.81060675     0.06460
H1575       H  0.90385879  0.48327769  0.83984070     0.06310
C1576       C  0.59763623  0.47378304  0.88289907     0.03350
C1577       C  0.63335300  0.47138397  0.89116132    -0.12800
C1578       C  0.65813246  0.46653959  0.86489900     0.00850
C1579       C  0.64714679  0.46620017  0.83040185    -0.11330
C1580       C  0.61186663  0.46664029  0.82148724     0.03340
C1581       C  0.58715034  0.47007295  0.84797081    -0.10750
H1582       H  0.64190720  0.47279534  0.91785672     0.08930
H1583       H  0.66654016  0.46520079  0.81008492     0.06460
H1584       H  0.55982755  0.46948610  0.84144967     0.06310
C1585       C  0.59821457  0.48527856  0.61438329     0.03350
C1586       C  0.58905813  0.47982016  0.64931782    -0.12800
C1587       C  0.61468791  0.47876301  0.67506860     0.00850
C1588       C  0.64934840  0.48485063  0.66608687    -0.11330
C1589       C  0.65890651  0.49017366  0.63161715     0.03340
C1590       C  0.63345170  0.49000467  0.60573202    -0.10750
H1591       H  0.56225999  0.47528664  0.65645213     0.08930
H1592       H  0.66925027  0.48447771  0.68599542     0.06460
H1593       H  0.64120173  0.49382127  0.57906037     0.06310
C1594       C  0.86734279  0.48410403  0.61383982     0.03350
C1595       C  0.87694012  0.48038608  0.64888572    -0.12800
C1596       C  0.85159482  0.48006933  0.67477939     0.00850
C1597       C  0.81658123  0.48390792  0.66583794    -0.11330
C1598       C  0.80656466  0.48775351  0.63124430     0.03340
C1599       C  0.83187806  0.48761409  0.60522704    -0.10750
H1600       H  0.90397533  0.47739619  0.65619438     0.08930
H1601       H  0.79695417  0.48380711  0.68596723     0.06460
H1602       H  0.82383961  0.49061610  0.57850288     0.06310
C1603       C  0.98556825  0.10166179  0.88403673     0.03350
C1604       C  0.98971777  0.13676511  0.89359707    -0.12800
C1605       C  0.99251435  0.16245211  0.86817468     0.00850
C1606       C  0.99013405  0.15328993  0.83321700    -0.11330
C1607       C  0.98582496  0.11885554  0.82325449     0.03340
C1608       C  0.98369991  0.09300161  0.84852736    -0.10750
H1609       H  0.99147209  0.14417361  0.92061339     0.08930
H1610       H  0.99169333  0.17318231  0.81352065     0.06460
H1611       H  0.98041061  0.06636161  0.84041092     0.06310
C1612       C  0.98802402  0.37014530  0.88349501     0.03350
C1613       C  0.99354884  0.33528410  0.89295343    -0.12800
C1614       C  0.99565140  0.30937153  0.86759247     0.00850
C1615       C  0.99207757  0.31822037  0.83270801    -0.11330
C1616       C  0.98565072  0.35248644  0.82282556     0.03340
C1617       C  0.98428610  0.37851777  0.84813223    -0.10750
H1618       H  0.99603554  0.32807720  0.91993750     0.08930
H1619       H  0.99303991  0.29805785  0.81312816     0.06460
H1620       H  0.97932990  0.40497031  0.84023889     0.06310
C1621       C  0.98273973  0.10061703  0.61474365     0.03350
C1622       C  0.98216738  0.09199127  0.65031457    -0.12800
C1623       C  0.98020300  0.11813038  0.67558301     0.00850
C1624       C  0.97931353  0.15275724  0.66546894    -0.11330
C1625       C  0.98020223  0.16177271  0.63055105     0.03340
C1626       C  0.98206863  0.13587108  0.60520142    -0.10750
H1627       H  0.98271607  0.06518684  0.65844201     0.08930
H1628       H  0.97803030  0.17294567  0.68501773     0.06460
H1629       H  0.98250769  0.14335119  0.57819416     0.06310
C1630       C  0.98137385  0.36985417  0.61427973     0.03350
C1631       C  0.97950527  0.37898369  0.64973016    -0.12800
C1632       C  0.97824480  0.35327170  0.67533864     0.00850
C1633       C  0.97892116  0.31845624  0.66540080    -0.11330
C1634       C  0.98006609  0.30888285  0.63056765     0.03340
C1635       C  0.98172706  0.33445497  0.60500405    -0.10750
H1636       H  0.97852283  0.40592564  0.65748862     0.08930
H1637       H  0.97810470  0.29842946  0.68501150     0.06460
H1638       H  0.98257162  0.32665312  0.57805387     0.06310
O1639       O  0.92652244  0.38737747  0.99819842    -0.86270
O1640       O  0.92579560  0.08334632  0.99968331    -0.86440
O1641       O  0.88402211  0.48467422  0.55467929    -0.88110
O1642       O  0.88394916  0.48443278  0.94191139    -0.86860
O1643       O  0.92629125  0.48434798  0.90020670    -0.86450
O1644       O  0.92633077  0.48460375  0.59654264    -0.87820
O1645       O  0.88334521  0.04190676  0.99973968    -0.86300
O1646       O  0.88420011  0.42933909  0.99870019    -0.85890
Zr1647     Zr  0.91252492  0.48566943  0.99840182     2.84310
O1648       O  0.94722108  0.02092556  0.96347979    -1.07860
O1649       O  0.94739284  0.45043758  0.53367667    -1.08590
C1650       C  0.89445278  0.39742285  0.99839778     1.06840
C1651       C  0.89365569  0.07369414  0.00031216     1.06780
C1652       C  0.89429308  0.48444090  0.58654729     1.09760
C1653       C  0.89421207  0.48360623  0.91003980     1.07540
H1654       H  0.93305973  0.03467074  0.54833244     0.33100
O1655       O  0.94750256  0.02026656  0.53374364    -1.28820
H1656       H  0.93345366  0.43593344  0.94893558     0.32770
O1657       O  0.94768317  0.45051512  0.96344837    -1.30490
O1658       O  0.53915220  0.08332411  0.00106964    -0.86270
O1659       O  0.53906375  0.38698184  0.99718080    -0.87760
O1660       O  0.98310743  0.04131070  0.59763343    -0.86340
O1661       O  0.98364207  0.04231483  0.90064423    -0.86390
O1662       O  0.98453440  0.42931077  0.90035366    -0.86100
O1663       O  0.98225523  0.42899218  0.59718759    -0.85910
O1664       O  0.58141941  0.48524293  0.55520056    -0.86280
O1665       O  0.58163876  0.48088236  0.94225342    -0.85740
O1666       O  0.53916291  0.48529116  0.59700368    -0.86810
O1667       O  0.53905418  0.48094095  0.90068807    -0.85960
O1668       O  0.98303518  0.08313718  0.55564454    -0.86360
O1669       O  0.98239185  0.38706810  0.55510773    -0.86090
O1670       O  0.98513761  0.38752084  0.94239610    -0.85740
O1671       O  0.98346487  0.08408320  0.94294518    -0.86140
O1672       O  0.58174283  0.04157812  0.00054338    -0.86440
O1673       O  0.58132593  0.42857724  0.99764534    -0.87780
Zr1674     Zr  0.98269865  0.05509798  0.99893377     2.83100
Zr1675     Zr  0.98281748  0.41578809  0.99877935     2.83500
Zr1676     Zr  0.98281648  0.48516205  0.56847642     2.84090
Zr1677     Zr  0.98271435  0.48571187  0.92888760     2.83360
Zr1678     Zr  0.55314666  0.48521682  0.99872699     2.84220
O1679       O  0.51751362  0.45082563  0.96409391    -1.08350
O1680       O  0.51780518  0.02005548  0.53376826    -1.07850
C1681       C  0.57129579  0.07345167  0.00160160     1.06810
C1682       C  0.57108260  0.39677688  0.99677608     1.09430
C1683       C  0.98312987  0.07321169  0.58761305     1.06980
C1684       C  0.98396489  0.07423026  0.91092926     1.07340
C1685       C  0.98570761  0.39745914  0.91048089     1.06930
C1686       C  0.98208509  0.39706340  0.58710216     1.06480
C1687       C  0.57118817  0.48532803  0.58706837     1.06900
C1688       C  0.57112506  0.47897442  0.91046014     1.06420
H1689       H  0.53283640  0.43546922  0.54824256     0.33090
O1690       O  0.51837589  0.45003498  0.53386740    -1.29450
H1691       H  0.53298809  0.03480019  0.94921267     0.33120
O1692       O  0.51834221  0.02057657  0.96356083    -1.30830
C1693       C  0.97786666  0.27167446  0.62194505     0.00060
C1694       C  0.50823509  0.25360914  0.61283805    -0.11810
C1695       C  0.50904794  0.21730839  0.61324568     0.02300
C1696       C  0.97873138  0.19881820  0.62158089    -0.00020
C1697       C  0.94785295  0.21689209  0.62845078    -0.11750
C1698       C  0.94736682  0.25301794  0.62937996     0.02180
H1699       H  0.53197327  0.26782653  0.60849242     0.15160
H1700       H  0.92479695  0.20268564  0.63586133     0.15160
C1701       C  0.91640108  0.27029837  0.64170352     0.36820
C1702       C  0.54194440  0.19961819  0.60937355     0.36720
N1703       N  0.89199341  0.28423405  0.65242413    -0.43530
N1704       N  0.56815050  0.18498849  0.60710963    -0.43520
C1705       C  0.97896341  0.35998645  0.78583570     0.00060
C1706       C  0.00298398  0.37955385  0.76693837    -0.11810
C1707       C  0.00163769  0.38026116  0.73059194     0.02300
C1708       C  0.97573829  0.36140447  0.71288403    -0.00020
C1709       C  0.94977703  0.34483868  0.73213475    -0.11750
C1710       C  0.95129030  0.34380462  0.76823228     0.02180
H1711       H  0.02418984  0.39220519  0.78039088     0.15160
H1712       H  0.92942243  0.33077737  0.71876189     0.15160
C1713       C  0.92517729  0.32439244  0.78659558     0.36820
C1714       C  0.02875934  0.39783234  0.71201305     0.36720
N1715       N  0.90442903  0.30868694  0.80135514    -0.43530
N1716       N  0.05030651  0.41178721  0.69668172    -0.43520
C1717       C  0.98315618  0.11093012  0.78594612     0.00060
C1718       C  0.95160638  0.11796727  0.76919221    -0.11810
C1719       C  0.94968951  0.11870063  0.73303922     0.02300
C1720       C  0.97930816  0.11045683  0.71304521    -0.00020
C1721       C  0.01045316  0.10164991  0.72983995    -0.11750
C1722       C  0.01284503  0.10291352  0.76605732     0.02180
H1723       H  0.92908168  0.12538765  0.78440835     0.15160
H1724       H  0.53362121  0.09676001  0.71459434     0.15160
C1725       C  0.54661563  0.09954982  0.78205001     0.36820
C1726       C  0.91785962  0.13059297  0.71704280     0.36720
N1727       N  0.57367740  0.09707520  0.79493079    -0.43530
N1728       N  0.89246719  0.14028789  0.70415346    -0.43520
C1729       C  0.99766545  0.19938299  0.87701337     0.00060
C1730       C  0.97012086  0.21822002  0.89179196    -0.11810
C1731       C  0.97034845  0.25453492  0.89159322     0.02300
C1732       C  0.99856008  0.27229565  0.87675395    -0.00020
C1733       C  0.52735587  0.25342825  0.86480767    -0.11750
C1734       C  0.52713525  0.21723921  0.86486927     0.02180
H1735       H  0.94729274  0.20467319  0.90090127     0.15160
H1736       H  0.54911622  0.26700792  0.85343656     0.15160
C1737       C  0.55643859  0.19889434  0.85021690     0.36820
C1738       C  0.94002059  0.27320340  0.90335339     0.36720
N1739       N  0.57975225  0.18407407  0.83830878    -0.43530
N1740       N  0.91611890  0.28908939  0.91232722    -0.43520
C1741       C  0.69615054  0.49387564  0.62335613     0.00060
C1742       C  0.71373585  0.46598649  0.60780209    -0.11810
C1743       C  0.75014690  0.46466422  0.60765320     0.02300
C1744       C  0.76922410  0.49165625  0.62318192    -0.00020
C1745       C  0.75159627  0.02079095  0.63611693    -0.11750
C1746       C  0.71530229  0.02212912  0.63621498     0.02180
H1747       H  0.69905521  0.44414789  0.59802122     0.15160
H1748       H  0.76623567  0.04171315  0.64780502     0.15160
C1749       C  0.69816536  0.05200315  0.65104728     0.36820
C1750       C  0.76727483  0.43413873  0.59421228     0.36720
N1751       N  0.68436515  0.07594358  0.66285434    -0.43530
N1752       N  0.78115604  0.40972013  0.58353578    -0.43520
C1753       C  0.60268043  0.46344347  0.78404148     0.00060
C1754       C  0.62167074  0.43946527  0.76412380    -0.11810
C1755       C  0.62374144  0.44257609  0.72825205     0.02300
C1756       C  0.60630991  0.46998025  0.71144487    -0.00020
C1757       C  0.58306237  0.49067676  0.73052894    -0.11750
C1758       C  0.58069637  0.48720637  0.76668741     0.02180
H1759       H  0.63696203  0.41960597  0.77691849     0.15220
H1760       H  0.56815778  0.01067158  0.71749791     0.15160
C1761       C  0.55601436  0.00843236  0.78519270     0.36820
C1762       C  0.64492797  0.41801265  0.70935995     0.36720
N1763       N  0.53542752  0.02433116  0.80027051    -0.43530
N1764       N  0.66191307  0.39838445  0.69419501    -0.43520
C1765       C  0.86091178  0.47314253  0.78435854     0.00060
C1766       C  0.87614793  0.50124500  0.76720981    -0.11810
C1767       C  0.87647120  0.50246392  0.73087643     0.02300
C1768       C  0.86080327  0.47569482  0.71162916    -0.00020
C1769       C  0.84890558  0.44617724  0.72871934    -0.11750
C1770       C  0.84938829  0.44444945  0.76478468     0.02180
H1771       H  0.88564410  0.02311207  0.78205003     0.15160
H1772       H  0.83764088  0.42516131  0.71386313     0.15160
C1773       C  0.83637969  0.41360601  0.78126283     0.36820
C1774       C  0.89095668  0.03212907  0.71368556     0.36720
N1775       N  0.82596496  0.38898019  0.79460136    -0.43530
N1776       N  0.90273116  0.05531793  0.69902761    -0.43520
C1777       C  0.76929758  0.46650464  0.87317145     0.00060
C1778       C  0.75240187  0.43916947  0.85619653    -0.11810
C1779       C  0.71620957  0.43699837  0.85577328     0.02300
C1780       C  0.69596497  0.46289141  0.87224344    -0.00020
C1781       C  0.71290179  0.48828325  0.89197269    -0.11750
C1782       C  0.74932567  0.49011576  0.89278874     0.02180
H1783       H  0.76760050  0.42026485  0.84184197     0.15160
H1784       H  0.69766082  0.50818248  0.90452934     0.15160
C1785       C  0.76558306  0.51804187  0.91139392     0.36820
C1786       C  0.70057382  0.40874120  0.83686997     0.36720
N1787       N  0.77945373  0.54010521  0.92611005    -0.43530
N1788       N  0.68817963  0.38624086  0.82144052    -0.43520
C1789       C  0.60476990  0.19865449  0.99450771     0.00060
C1790       C  0.59706188  0.21852285  0.52390775    -0.11810
C1791       C  0.59733973  0.25467050  0.52247757     0.02300
C1792       C  0.60506256  0.27136453  0.99104729    -0.00020
C1793       C  0.61052169  0.25151341  0.96104605    -0.11750
C1794       C  0.61051272  0.21527783  0.96259939     0.02180
H1795       H  0.59363153  0.20578621  0.54854318     0.15160
H1796       H  0.61695598  0.26431076  0.93695129     0.15160
C1797       C  0.61909813  0.19566371  0.93189920     0.36820
C1798       C  0.59339363  0.27412822  0.55421829     0.36720
N1799       N  0.62616020  0.17981139  0.90741874    -0.43530
N1800       N  0.59073552  0.29002795  0.57951440    -0.43520
C1801       C  0.76931621  0.11285346  0.02007006     0.00060
C1802       C  0.75151780  0.08953358  0.99862510    -0.11810
C1803       C  0.71507025  0.08874615  0.99798211     0.02300
C1804       C  0.69580431  0.11149172  0.01931676    -0.00020
C1805       C  0.71353182  0.13166792  0.54371054    -0.11750
C1806       C  0.74987572  0.13236980  0.54438703     0.02180
H1807       H  0.76604345  0.07378513  0.98057362     0.15160
H1808       H  0.69900554  0.14853920  0.56097504     0.15160
C1809       C  0.76670121  0.15464382  0.56933186     0.36820
C1810       C  0.69805109  0.06662826  0.97320419     0.36720
N1811       N  0.78019990  0.17265849  0.58913881    -0.43530
N1812       N  0.68360280  0.04901950  0.95376054    -0.43520
C1813       C  0.69607970  0.35995480  0.50238273     0.00060
C1814       C  0.71436067  0.37714625  0.97618433    -0.11810
C1815       C  0.75077846  0.37790421  0.97666035     0.02300
C1816       C  0.76906406  0.36139585  0.50375159    -0.00020
C1817       C  0.75054195  0.34711524  0.53144401    -0.11750
C1818       C  0.71431708  0.34630820  0.53099252     0.02180
H1819       H  0.70036383  0.38772428  0.95419946     0.15160
H1820       H  0.76453556  0.33476882  0.55250152     0.15160
C1821       C  0.69643086  0.32978790  0.55930636     0.36820
C1822       C  0.76894605  0.39258976  0.94761466     0.36720
N1823       N  0.68206219  0.31649454  0.58191802    -0.43530
N1824       N  0.78406141  0.40407539  0.92452400    -0.43520
C1825       C  0.86041799  0.27216911  0.99864618     0.00060
C1826       C  0.86269034  0.25318201  0.96774564    -0.11810
C1827       C  0.86348265  0.21693486  0.96828176     0.02300
C1828       C  0.86118103  0.19945757  0.00016739    -0.00020
C1829       C  0.86047222  0.21828386  0.53106610    -0.11750
C1830       C  0.85996842  0.25441624  0.53051209     0.02180
H1831       H  0.86124875  0.26657592  0.94320312     0.15160
H1832       H  0.85792073  0.20485770  0.55556148     0.15160
C1833       C  0.85512653  0.27301667  0.56259790     0.36820
C1834       C  0.86392497  0.19825860  0.93585859     0.36720
N1835       N  0.85050505  0.28838025  0.58792666    -0.43530
N1836       N  0.86437962  0.18333370  0.90984147    -0.43520
C1837       C  0.86743985  0.87001924  0.49823314     0.03350
C1838       C  0.87692603  0.83469879  0.49665324    -0.12800
C1839       C  0.85139236  0.80905524  0.49718953     0.00850
C1840       C  0.81645390  0.81857241  0.99925285    -0.11330
C1841       C  0.80647146  0.85333791  0.00097896     0.03340
C1842       C  0.83188225  0.87917776  0.00029908    -0.10750
H1843       H  0.90400099  0.82697270  0.49557953     0.08930
H1844       H  0.79684729  0.79851582  0.99996737     0.06460
H1845       H  0.82386289  0.90605019  0.00188431     0.06310
C1846       C  0.86659466  0.60116078  0.50245440     0.03350
C1847       C  0.87625219  0.63610272  0.49871322    -0.12800
C1848       C  0.85144063  0.66241628  0.50177900     0.00850
C1849       C  0.81683046  0.65414026  0.50828575    -0.11330
C1850       C  0.80653570  0.61979790  0.51318623     0.03340
C1851       C  0.83147035  0.59321349  0.50961669    -0.10750
H1852       H  0.90302179  0.64305695  0.49377944     0.08930
H1853       H  0.79775860  0.67485071  0.50960628     0.06460
H1854       H  0.82359569  0.56657902  0.51308212     0.06310
C1855       C  0.59792054  0.60094659  0.50359446     0.03350
C1856       C  0.63285747  0.59275625  0.51148582    -0.12800
C1857       C  0.65817974  0.61886921  0.51297148     0.00850
C1858       C  0.64819445  0.65322552  0.50686282    -0.11330
C1859       C  0.61371360  0.66181407  0.49945809     0.03340
C1860       C  0.58859631  0.63583330  0.49786949    -0.10750
H1861       H  0.64036208  0.56622466  0.51668774     0.08930
H1862       H  0.66748809  0.67357565  0.50756535     0.06460
H1863       H  0.56196215  0.64292872  0.49202252     0.06310
C1864       C  0.59809223  0.86937809  0.99519300     0.03350
C1865       C  0.63356926  0.87797361  0.99756247    -0.12800
C1866       C  0.65898366  0.85195828  0.99718424     0.00850
C1867       C  0.64917083  0.81737671  0.99317155    -0.11330
C1868       C  0.61418351  0.80836663  0.49079802     0.03340
C1869       C  0.58864137  0.83425406  0.49197180    -0.10750
H1870       H  0.64152529  0.90465525  0.00068852     0.08930
H1871       H  0.66886949  0.79719638  0.99312396     0.06460
H1872       H  0.56155558  0.82684371  0.49080574     0.06310
C1873       C  0.86722828  0.98067236  0.38261401     0.03350
C1874       C  0.83192538  0.97603025  0.39142016    -0.12800
C1875       C  0.80663352  0.97223204  0.36545196     0.00850
C1876       C  0.81682239  0.97310039  0.33076405    -0.11330
C1877       C  0.85173980  0.97609141  0.32147776     0.03340
C1878       C  0.87685138  0.98067514  0.34731970    -0.10750
H1879       H  0.82413896  0.97466795  0.41831459     0.08930
H1880       H  0.79733512  0.97069267  0.31059240     0.06460
H1881       H  0.90383073  0.98321001  0.33983754     0.06310
C1882       C  0.59760307  0.97377983  0.38290718     0.03350
C1883       C  0.63332009  0.97138910  0.39117361    -0.12800
C1884       C  0.65810274  0.96654939  0.36491345     0.00850
C1885       C  0.64712179  0.96620816  0.33041567    -0.11330
C1886       C  0.61184340  0.96664145  0.32149696     0.03340
C1887       C  0.58712263  0.97006987  0.34797700    -0.10750
H1888       H  0.64187175  0.97280025  0.41786986     0.08930
H1889       H  0.66651823  0.96520910  0.31010144     0.06460
H1890       H  0.55980096  0.96947872  0.34145145     0.06310
C1891       C  0.59825172  0.98528712  0.11439482     0.03350
C1892       C  0.58908849  0.97982865  0.14932730    -0.12800
C1893       C  0.61471354  0.97876609  0.17508216     0.00850
C1894       C  0.64937724  0.98484702  0.16610585    -0.11330
C1895       C  0.65894077  0.99016987  0.13163719     0.03340
C1896       C  0.63349008  0.99000684  0.10574888    -0.10750
H1897       H  0.56228814  0.97530051  0.15645706     0.08930
H1898       H  0.66927617  0.98447099  0.18601716     0.06460
H1899       H  0.64124428  0.99382545  0.07907871     0.06310
C1900       C  0.86738218  0.98418131  0.11383441     0.03350
C1901       C  0.87697508  0.98043731  0.14887943    -0.12800
C1902       C  0.85162463  0.98008345  0.17476854     0.00850
C1903       C  0.81661138  0.98391142  0.16582360    -0.11330
C1904       C  0.80659902  0.98778353  0.13123273     0.03340
C1905       C  0.83191623  0.98768020  0.10521904    -0.10750
H1906       H  0.90401047  0.97745567  0.15619039     0.08930
H1907       H  0.79698059  0.98378506  0.18594906     0.06460
H1908       H  0.82387954  0.99069922  0.07849634     0.06310
C1909       C  0.98550828  0.60160164  0.38404448     0.03350
C1910       C  0.98967216  0.63670284  0.39361188    -0.12800
C1911       C  0.99249543  0.66239254  0.36819385     0.00850
C1912       C  0.99012510  0.65323547  0.33323495    -0.11330
C1913       C  0.98580192  0.61880591  0.32326534     0.03340
C1914       C  0.98365128  0.59294827  0.34853264    -0.10750
H1915       H  0.99141867  0.64410655  0.42062996     0.08930
H1916       H  0.99170095  0.67312961  0.31354160     0.06460
H1917       H  0.98035153  0.56631136  0.34041048     0.06310
C1918       C  0.98802789  0.87008521  0.38348318     0.03350
C1919       C  0.99354288  0.83522217  0.39293664    -0.12800
C1920       C  0.99563685  0.80931248  0.36757293     0.00850
C1921       C  0.99206798  0.81816751  0.33268833    -0.11330
C1922       C  0.98565596  0.85243867  0.32281069     0.03340
C1923       C  0.98429702  0.87846505  0.34812194    -0.10750
H1924       H  0.99602678  0.82801102  0.41991985     0.08930
H1925       H  0.99302496  0.79800787  0.31310547     0.06460
H1926       H  0.97934926  0.90492039  0.34023271     0.06310
C1927       C  0.98280465  0.60067714  0.11475290     0.03350
C1928       C  0.98221610  0.59204435  0.15032105    -0.12800
C1929       C  0.98021817  0.61817657  0.17559307     0.00850
C1930       C  0.97930987  0.65280542  0.16548499    -0.11330
C1931       C  0.98021776  0.66182731  0.13056831     0.03340
C1932       C  0.98211861  0.63593124  0.10521613    -0.10750
H1933       H  0.98277791  0.56523864  0.15844385     0.08930
H1934       H  0.97800218  0.67298945  0.18503662     0.06460
H1935       H  0.98256927  0.64341566  0.07821025     0.06310
C1936       C  0.98136303  0.86991360  0.11426842     0.03350
C1937       C  0.97949653  0.87903564  0.14972155    -0.12800
C1938       C  0.97823471  0.85331718  0.17532435     0.00850
C1939       C  0.97891126  0.81850485  0.16537911    -0.11330
C1940       C  0.98004896  0.80893757  0.13054502     0.03340
C1941       C  0.98170993  0.83451494  0.10498564    -0.10750
H1942       H  0.97851836  0.90597594  0.15748613     0.08930
H1943       H  0.97809878  0.79847420  0.18498625     0.06460
H1944       H  0.98255238  0.82671796  0.07803404     0.06310
O1945       O  0.92655129  0.88720851  0.49818893    -0.86270
O1946       O  0.92563656  0.58319722  0.49966651    -0.86440
O1947       O  0.88406821  0.98481075  0.05467593    -0.88110
O1948       O  0.88391048  0.98430298  0.44190684    -0.86860
O1949       O  0.92625313  0.98427278  0.40020280    -0.86450
O1950       O  0.92637427  0.98468384  0.09654137    -0.87820
O1951       O  0.88322288  0.54172031  0.49973289    -0.86300
O1952       O  0.88421486  0.92915530  0.49869393    -0.85890
Zr1953     Zr  0.91247410  0.98552446  0.49840260     2.84310
O1954       O  0.94713781  0.52081412  0.46347988    -1.07860
O1955       O  0.94741740  0.95054670  0.03367047    -1.08590
C1956       C  0.89447752  0.89724075  0.49838827     1.06840
C1957       C  0.89350436  0.57351633  0.50029529     1.06780
C1958       C  0.89433652  0.98454324  0.08654437     1.09760
C1959       C  0.89417533  0.98351132  0.41003510     1.07540
H1960       H  0.93314970  0.53478929  0.04833817     0.33100
O1961       O  0.94758266  0.52037596  0.03374781    -1.28820
H1962       H  0.93344157  0.93582245  0.44893001     0.32770
O1963       O  0.94766114  0.95041048  0.46344528    -1.30490
O1964       O  0.53900012  0.58330654  0.50107074    -0.86270
O1965       O  0.53907589  0.88693993  0.49718265    -0.87760
O1966       O  0.98316767  0.54137631  0.09763750    -0.86340
O1967       O  0.98358555  0.54224884  0.40064633    -0.86390
O1968       O  0.98451507  0.92924484  0.40034861    -0.86100
O1969       O  0.98227235  0.92905720  0.09718424    -0.85910
O1970       O  0.58146486  0.98525992  0.05521003    -0.86280
O1971       O  0.58159551  0.98087048  0.44225977    -0.85740
O1972       O  0.53920441  0.98532998  0.09700999    -0.86810
O1973       O  0.53901419  0.98090151  0.40069203    -0.85960
O1974       O  0.98315138  0.58320645  0.05565201    -0.86360
O1975       O  0.98238341  0.88713908  0.05509933    -0.86090
O1976       O  0.98514850  0.88745055  0.44238707    -0.85740
O1977       O  0.98335583  0.58401532  0.44294855    -0.86140
O1978       O  0.58160366  0.54157176  0.50054787    -0.86440
O1979       O  0.58131699  0.92855637  0.49764501    -0.87780
Zr1980     Zr  0.98258144  0.55502035  0.49893073     2.83100
Zr1981     Zr  0.98280881  0.91570120  0.49877854     2.83500
Zr1982     Zr  0.98286423  0.98523365  0.06847765     2.84090
Zr1983     Zr  0.98266786  0.98563887  0.42888762     2.83360
Zr1984     Zr  0.55308733  0.98517694  0.49872582     2.84220
O1985       O  0.51748123  0.95076339  0.46409151    -1.08350
O1986       O  0.51788714  0.52010864  0.03377795    -1.07850
C1987       C  0.57114463  0.57344110  0.50160847     1.06810
C1988       C  0.57108972  0.89675000  0.49677684     1.09430
C1989       C  0.98321438  0.57327727  0.08761951     1.06980
C1990       C  0.98388662  0.57416501  0.41093273     1.07340
C1991       C  0.98570729  0.89739333  0.41047282     1.06930
C1992       C  0.98208410  0.89712910  0.08709520     1.06480
C1993       C  0.57122994  0.98534953  0.08707699     1.06900
C1994       C  0.57108595  0.97895610  0.41046588     1.06420
H1995       H  0.53286243  0.93551389  0.04824559     0.33090
O1996       O  0.51841243  0.95009121  0.03387057    -1.29450
H1997       H  0.53289600  0.53475296  0.44922541     0.33120
O1998       O  0.51825795  0.52051973  0.46357046    -1.30830
C1999       C  0.97784903  0.77172855  0.12192291     0.00060
C2000       C  0.50821646  0.75366696  0.11280425    -0.11810
C2001       C  0.50904071  0.71736647  0.11323281     0.02300
C2002       C  0.97873499  0.69887213  0.12159736    -0.00020
C2003       C  0.94785601  0.71694006  0.12847706    -0.11750
C2004       C  0.94736031  0.75306571  0.12939029     0.02180
H2005       H  0.53194792  0.76788879  0.10843726     0.15160
H2006       H  0.92480887  0.70273034  0.13590869     0.15160
C2007       C  0.91640206  0.77033893  0.14174206     0.36820
C2008       C  0.54194036  0.69968322  0.10935612     0.36720
N2009       N  0.89200118  0.78426571  0.15248941    -0.43530
N2010       N  0.56814825  0.68505698  0.10709127    -0.43520
C2011       C  0.97897313  0.85995412  0.28582273     0.00060
C2012       C  0.00299400  0.87953156  0.26693543    -0.11810
C2013       C  0.00163905  0.88026926  0.23058978     0.02300
C2014       C  0.97573002  0.86143483  0.21287300    -0.00020
C2015       C  0.94976846  0.84486073  0.23211674    -0.11750
C2016       C  0.95129119  0.84379479  0.26821290     0.02180
H2017       H  0.02420497  0.89216871  0.28039331     0.15160
H2018       H  0.92940734  0.83081496  0.21873726     0.15160
C2019       C  0.92517581  0.82437694  0.28656666     0.36820
C2020       C  0.02876045  0.89784777  0.21201760     0.36720
N2021       N  0.90442540  0.80866729  0.30131877    -0.43530
N2022       N  0.05030696  0.91180839  0.19669067    -0.43520
C2023       C  0.98314272  0.61089497  0.28595378     0.00060
C2024       C  0.95159605  0.61793936  0.26919658    -0.11810
C2025       C  0.94969042  0.61870744  0.23304377     0.02300
C2026       C  0.97931710  0.61048882  0.21305194    -0.00020
C2027       C  0.01045910  0.60167435  0.22984788    -0.11750
C2028       C  0.01284034  0.60290733  0.26606650     0.02180
H2029       H  0.92906526  0.62534155  0.28441248     0.15160
H2030       H  0.53363252  0.59680217  0.21460478     0.15160
C2031       C  0.54660839  0.59954367  0.28206477     0.36820
C2032       C  0.91786188  0.63060447  0.21704826     0.36720
N2033       N  0.57366838  0.59706893  0.29494927    -0.43530
N2034       N  0.89246997  0.64030263  0.20416034    -0.43520
C2035       C  0.99765542  0.69932318  0.37703288     0.00060
C2036       C  0.97011581  0.71816550  0.39181456    -0.11810
C2037       C  0.97034085  0.75448071  0.39159971     0.02300
C2038       C  0.99854300  0.77223646  0.37673562    -0.00020
C2039       C  0.52733559  0.75336598  0.36478795    -0.11750
C2040       C  0.52711984  0.71717714  0.36487061     0.02180
H2041       H  0.94729202  0.70462152  0.40093899     0.15160
H2042       H  0.54909125  0.76694213  0.35340362     0.15160
C2043       C  0.55642229  0.69882931  0.35022006     0.36820
C2044       C  0.94002114  0.77315199  0.40337774     0.36720
N2045       N  0.57973610  0.68400810  0.33831340    -0.43530
N2046       N  0.91612528  0.78903653  0.41237021    -0.43520
C2047       C  0.69618435  0.99387372  0.12337753     0.00060
C2048       C  0.71377211  0.96598680  0.10782230    -0.11810
C2049       C  0.75018332  0.96467615  0.10765933     0.02300
C2050       C  0.76925773  0.99167832  0.12317287    -0.00020
C2051       C  0.75162583  0.52080934  0.13611065    -0.11750
C2052       C  0.71533157  0.52213536  0.13622434     0.02180
H2053       H  0.69909443  0.94414251  0.09804978     0.15160
H2054       H  0.76626321  0.54173737  0.14779072     0.15160
C2055       C  0.69819065  0.55200647  0.15105805     0.36820
C2056       C  0.76731653  0.93415301  0.09422027     0.36720
N2057       N  0.68438698  0.57594447  0.16286606    -0.43530
N2058       N  0.78120268  0.90973617  0.08354628    -0.43520
C2059       C  0.60266507  0.96344160  0.28405020     0.00060
C2060       C  0.62166042  0.93946273  0.26413803    -0.11810
C2061       C  0.62374586  0.94257674  0.22826747     0.02300
C2062       C  0.60632489  0.96998495  0.21145642    -0.00020
C2063       C  0.58307119  0.99068179  0.23053335    -0.11750
C2064       C  0.58068998  0.98720756  0.26669040     0.02180
H2065       H  0.63694530  0.91960148  0.27693721     0.15220
H2066       H  0.56817286  0.51067866  0.21749851     0.15160
C2067       C  0.55600146  0.50843118  0.28518975     0.36820
C2068       C  0.64493455  0.91801111  0.20938070     0.36720
N2069       N  0.53540964  0.52432681  0.30026411    -0.43530
N2070       N  0.66192078  0.89838104  0.19421943    -0.43520
C2071       C  0.86088920  0.97312202  0.28434849     0.00060
C2072       C  0.87613560  0.00122874  0.26721545    -0.11810
C2073       C  0.87647972  0.00245723  0.23088258     0.02300
C2074       C  0.86082437  0.97569244  0.21161907    -0.00020
C2075       C  0.84891592  0.94617067  0.22869571    -0.11750
C2076       C  0.84937574  0.94443476  0.26476123     0.02180
H2077       H  0.88562469  0.52309139  0.28206681     0.15160
H2078       H  0.83765856  0.92515887  0.21382806     0.15160
C2079       C  0.83635825  0.91358781  0.28122543     0.36820
C2080       C  0.89097063  0.53212909  0.21370785     0.36720
N2081       N  0.82593748  0.88895930  0.29455423    -0.43530
N2082       N  0.90274903  0.55532319  0.19906139    -0.43520
C2083       C  0.76926535  0.96649571  0.37316432     0.00060
C2084       C  0.75236161  0.93915150  0.35621479    -0.11810
C2085       C  0.71616923  0.93698877  0.35580082     0.02300
C2086       C  0.69593384  0.96289790  0.37225812    -0.00020
C2087       C  0.71288004  0.98830654  0.39195825    -0.11750
C2088       C  0.74930438  0.99013239  0.39276270     0.02180
H2089       H  0.76755377  0.92023426  0.34186976     0.15160
H2090       H  0.69764750  0.00822601  0.40449471     0.15160
C2091       C  0.76557219  0.01808191  0.41132638     0.36820
C2092       C  0.70052397  0.90872842  0.33690988     0.36720
N2093       N  0.77944615  0.04016784  0.42600631    -0.43530
N2094       N  0.68812387  0.88622640  0.32148767    -0.43520
C2095       C  0.60471777  0.69862925  0.49450834     0.00060
C2096       C  0.59711799  0.71853809  0.02391442    -0.11810
C2097       C  0.59736461  0.75468574  0.02248703     0.02300
C2098       C  0.60507099  0.77134105  0.49104157    -0.00020
C2099       C  0.61053915  0.75148225  0.46104693    -0.11750
C2100       C  0.61049996  0.71524635  0.46260333     0.02180
H2101       H  0.59371941  0.70579592  0.04855151     0.15160
H2102       H  0.61699775  0.76427250  0.43695493     0.15160
C2103       C  0.61908737  0.69562390  0.43190913     0.36820
C2104       C  0.59342506  0.77413734  0.05423228     0.36720
N2105       N  0.62614998  0.67976681  0.40743189    -0.43530
N2106       N  0.59077128  0.79003141  0.07953239    -0.43520
C2107       C  0.76915082  0.61260775  0.52013644     0.00060
C2108       C  0.75132400  0.58928775  0.49871456    -0.11810
C2109       C  0.71487516  0.58855464  0.49806905     0.02300
C2110       C  0.69564336  0.61135461  0.51937908    -0.00020
C2111       C  0.71366875  0.63182933  0.04364850    -0.11750
C2112       C  0.75001286  0.63258965  0.04431934     0.02180
H2113       H  0.76582733  0.57350265  0.48067541     0.15160
H2114       H  0.69911971  0.64867221  0.06092156     0.15160
C2115       C  0.76680594  0.65488620  0.06926623     0.36820
C2116       C  0.69782483  0.56643610  0.47331083     0.36720
N2117       N  0.78027989  0.67292022  0.08907252    -0.43530
N2118       N  0.68335149  0.54882584  0.45388642    -0.43520
C2119       C  0.69606376  0.85999022  0.00237523     0.00060
C2120       C  0.71438671  0.87710041  0.47619191    -0.11810
C2121       C  0.75080582  0.87782193  0.47665808     0.02300
C2122       C  0.76904618  0.86150929  0.00376577    -0.00020
C2123       C  0.75053047  0.84721349  0.03145500    -0.11750
C2124       C  0.71430663  0.84636638  0.03099201     0.02180
H2125       H  0.70039455  0.88769655  0.45421285     0.15160
H2126       H  0.76453073  0.83488574  0.05251903     0.15160
C2127       C  0.69642908  0.82983394  0.05930415     0.36820
C2128       C  0.76897937  0.89250832  0.44761570     0.36720
N2129       N  0.68206710  0.81653083  0.08191426    -0.43530
N2130       N  0.78409454  0.90399861  0.42452688    -0.43520
C2131       C  0.86034871  0.77197233  0.49862265     0.00060
C2132       C  0.86262246  0.75298994  0.46771638    -0.11810
C2133       C  0.86333037  0.71673851  0.46823707     0.02300
C2134       C  0.86095002  0.69925221  0.50011189    -0.00020
C2135       C  0.86071789  0.71850011  0.03111615    -0.11750
C2136       C  0.86013439  0.75463153  0.03054537     0.02180
H2137       H  0.86124736  0.76639592  0.44317709     0.15160
H2138       H  0.85822274  0.70507978  0.05562058     0.15160
C2139       C  0.85529947  0.77324499  0.06262480     0.36820
C2140       C  0.86377536  0.69807394  0.43580699     0.36720
N2141       N  0.85067927  0.78862982  0.08794087    -0.43530
N2142       N  0.86423053  0.68315755  0.40978491    -0.43520
C2143       C  0.86741748  0.87020449  0.99824573     0.03350
C2144       C  0.87692489  0.83489329  0.99666590    -0.12800
C2145       C  0.85141407  0.80923565  0.99720810     0.00850
C2146       C  0.81643841  0.81842090  0.49922790    -0.11330
C2147       C  0.80648166  0.85319237  0.50095703     0.03340
C2148       C  0.83190957  0.87901197  0.50028348    -0.10750
H2149       H  0.90400385  0.82718123  0.99558848     0.08930
H2150       H  0.79681467  0.79838059  0.49993744     0.06460
H2151       H  0.82390442  0.90588831  0.50187252     0.06310
C2152       C  0.86677145  0.60136195  0.00248474     0.03350
C2153       C  0.87646002  0.63630019  0.99878675    -0.12800
C2154       C  0.85166223  0.66262731  0.00184925     0.00850
C2155       C  0.81703864  0.65437145  0.00831367    -0.11330
C2156       C  0.80671424  0.62003351  0.01317359     0.03340
C2157       C  0.83163488  0.59343581  0.00960751    -0.10750
H2158       H  0.90323818  0.64323928  0.99387684     0.08930
H2159       H  0.79797817  0.67509305  0.00962130     0.06460
H2160       H  0.82373689  0.56680392  0.01303899     0.06310
C2161       C  0.59807221  0.60096456  0.00357185     0.03350
C2162       C  0.63302701  0.59280293  0.01143182    -0.12800
C2163       C  0.65832414  0.61894820  0.01292167     0.00850
C2164       C  0.64829727  0.65329505  0.00683077    -0.11330
C2165       C  0.61380594  0.66184925  0.99944731     0.03340
C2166       C  0.58871540  0.63584609  0.99786534    -0.10750
H2167       H  0.64056127  0.56627497  0.01661026     0.08930
H2168       H  0.66756786  0.67366717  0.00753002     0.06460
H2169       H  0.56207221  0.64292343  0.99203780     0.06310
C2170       C  0.59810674  0.86935667  0.49519238     0.03350
C2171       C  0.63358396  0.87795174  0.49756640    -0.12800
C2172       C  0.65899764  0.85193338  0.49718632     0.00850
C2173       C  0.64918333  0.81735237  0.49316613    -0.11330
C2174       C  0.61417029  0.80839000  0.99080522     0.03340
C2175       C  0.58862598  0.83427605  0.99197738    -0.10750
H2176       H  0.64153896  0.90463308  0.50069751     0.08930
H2177       H  0.66888076  0.79717083  0.49311699     0.06460
H2178       H  0.56153985  0.82686648  0.99081344     0.06310
C2179       C  0.86726124  0.98074274  0.88262163     0.03350
C2180       C  0.83196015  0.97608027  0.89143162    -0.12800
C2181       C  0.80666660  0.97226106  0.86546508     0.00850
C2182       C  0.81685436  0.97312963  0.83077768    -0.11330
C2183       C  0.85176937  0.97612716  0.82148823     0.03340
C2184       C  0.87688133  0.98073364  0.84732617    -0.10750
H2185       H  0.82417874  0.97471658  0.91832724     0.08930
H2186       H  0.79736743  0.97071253  0.81060675     0.06460
H2187       H  0.90385879  0.98327767  0.83984070     0.06310
C2188       C  0.59763622  0.97378304  0.88289907     0.03350
C2189       C  0.63335299  0.97138397  0.89116132    -0.12800
C2190       C  0.65813245  0.96653958  0.86489900     0.00850
C2191       C  0.64714679  0.96620016  0.83040185    -0.11330
C2192       C  0.61186663  0.96664029  0.82148724     0.03340
C2193       C  0.58715033  0.97007295  0.84797081    -0.10750
H2194       H  0.64190719  0.97279534  0.91785672     0.08930
H2195       H  0.66654016  0.96520078  0.81008493     0.06460
H2196       H  0.55982755  0.96948610  0.84144967     0.06310
C2197       C  0.59821458  0.98527856  0.61438329     0.03350
C2198       C  0.58905814  0.97982016  0.64931782    -0.12800
C2199       C  0.61468791  0.97876302  0.67506859     0.00850
C2200       C  0.64934840  0.98485063  0.66608687    -0.11330
C2201       C  0.65890651  0.99017367  0.63161715     0.03340
C2202       C  0.63345170  0.99000466  0.60573201    -0.10750
H2203       H  0.56226000  0.97528664  0.65645212     0.08930
H2204       H  0.66925028  0.98447771  0.68599541     0.06460
H2205       H  0.64120174  0.99382127  0.57906036     0.06310
C2206       C  0.86734279  0.98410403  0.61383982     0.03350
C2207       C  0.87694012  0.98038607  0.64888572    -0.12800
C2208       C  0.85159482  0.98006932  0.67477940     0.00850
C2209       C  0.81658123  0.98390791  0.66583794    -0.11330
C2210       C  0.80656467  0.98775350  0.63124430     0.03340
C2211       C  0.83187806  0.98761409  0.60522704    -0.10750
H2212       H  0.90397533  0.97739619  0.65619439     0.08930
H2213       H  0.79695417  0.98380710  0.68596723     0.06460
H2214       H  0.82383962  0.99061610  0.57850288     0.06310
C2215       C  0.98556825  0.60166179  0.88403673     0.03350
C2216       C  0.98971776  0.63676511  0.89359707    -0.12800
C2217       C  0.99251435  0.66245211  0.86817468     0.00850
C2218       C  0.99013403  0.65328993  0.83321699    -0.11330
C2219       C  0.98582494  0.61885554  0.82325449     0.03340
C2220       C  0.98369991  0.59300161  0.84852735    -0.10750
H2221       H  0.99147210  0.64417361  0.92061339     0.08930
H2222       H  0.99169331  0.67318232  0.81352065     0.06460
H2223       H  0.98041061  0.56636161  0.84041092     0.06310
C2224       C  0.98802402  0.87014530  0.88349501     0.03350
C2225       C  0.99354883  0.83528410  0.89295343    -0.12800
C2226       C  0.99565139  0.80937153  0.86759248     0.00850
C2227       C  0.99207756  0.81822037  0.83270802    -0.11330
C2228       C  0.98565072  0.85248643  0.82282556     0.03340
C2229       C  0.98428610  0.87851777  0.84813223    -0.10750
H2230       H  0.99603554  0.82807720  0.91993751     0.08930
H2231       H  0.99303991  0.79805785  0.81312817     0.06460
H2232       H  0.97932990  0.90497031  0.84023889     0.06310
C2233       C  0.98273973  0.60061703  0.61474364     0.03350
C2234       C  0.98216738  0.59199127  0.65031457    -0.12800
C2235       C  0.98020300  0.61813038  0.67558301     0.00850
C2236       C  0.97931352  0.65275724  0.66546893    -0.11330
C2237       C  0.98020223  0.66177271  0.63055104     0.03340
C2238       C  0.98206863  0.63587107  0.60520141    -0.10750
H2239       H  0.98271606  0.56518684  0.65844201     0.08930
H2240       H  0.97803029  0.67294567  0.68501773     0.06460
H2241       H  0.98250769  0.64335119  0.57819415     0.06310
C2242       C  0.98137386  0.86985417  0.61427974     0.03350
C2243       C  0.97950528  0.87898369  0.64973016    -0.12800
C2244       C  0.97824481  0.85327170  0.67533864     0.00850
C2245       C  0.97892117  0.81845624  0.66540080    -0.11330
C2246       C  0.98006609  0.80888285  0.63056765     0.03340
C2247       C  0.98172707  0.83445497  0.60500405    -0.10750
H2248       H  0.97852284  0.90592564  0.65748863     0.08930
H2249       H  0.97810471  0.79842946  0.68501150     0.06460
H2250       H  0.98257162  0.82665312  0.57805387     0.06310
O2251       O  0.92652244  0.88737747  0.99819843    -0.86270
O2252       O  0.92579561  0.58334632  0.99968330    -0.86440
O2253       O  0.88402211  0.98467422  0.55467929    -0.88110
O2254       O  0.88394915  0.98443277  0.94191140    -0.86860
O2255       O  0.92629125  0.98434798  0.90020670    -0.86450
O2256       O  0.92633078  0.98460375  0.59654265    -0.87820
O2257       O  0.88334522  0.54190676  0.99973968    -0.86300
O2258       O  0.88420011  0.92933909  0.99870019    -0.85890
Zr2259     Zr  0.91252491  0.98566943  0.99840182     2.84310
O2260       O  0.94722108  0.52092556  0.96347979    -1.07860
O2261       O  0.94739285  0.95043758  0.53367668    -1.08590
C2262       C  0.89445277  0.89742285  0.99839778     1.06840
C2263       C  0.89365570  0.57369414  0.00031215     1.06780
C2264       C  0.89429309  0.98444090  0.58654729     1.09760
C2265       C  0.89421206  0.98360622  0.91003981     1.07540
H2266       H  0.93305973  0.53467074  0.54833244     0.33100
O2267       O  0.94750256  0.52026655  0.53374364    -1.28820
H2268       H  0.93345366  0.93593344  0.94893558     0.32770
O2269       O  0.94768317  0.95051512  0.96344838    -1.30490
O2270       O  0.53915221  0.58332411  0.00106963    -0.86270
O2271       O  0.53906374  0.88698184  0.99718080    -0.87760
O2272       O  0.98310743  0.54131070  0.59763343    -0.86340
O2273       O  0.98364207  0.54231483  0.90064423    -0.86390
O2274       O  0.98453440  0.92931077  0.90035367    -0.86100
O2275       O  0.98225523  0.92899218  0.59718759    -0.85910
O2276       O  0.58141942  0.98524293  0.55520056    -0.86280
O2277       O  0.58163875  0.98088236  0.94225341    -0.85740
O2278       O  0.53916292  0.98529116  0.59700368    -0.86810
O2279       O  0.53905417  0.98094095  0.90068806    -0.85960
O2280       O  0.98303518  0.58313718  0.55564453    -0.86360
O2281       O  0.98239185  0.88706810  0.55510774    -0.86090
O2282       O  0.98513761  0.88752084  0.94239610    -0.85740
O2283       O  0.98346487  0.58408320  0.94294518    -0.86140
O2284       O  0.58174284  0.54157812  0.00054338    -0.86440
O2285       O  0.58132593  0.92857724  0.99764534    -0.87780
Zr2286     Zr  0.98269865  0.55509798  0.99893377     2.83100
Zr2287     Zr  0.98281748  0.91578809  0.99877935     2.83500
Zr2288     Zr  0.98281648  0.98516206  0.56847642     2.84090
Zr2289     Zr  0.98271434  0.98571187  0.92888760     2.83360
Zr2290     Zr  0.55314666  0.98521682  0.99872699     2.84220
O2291       O  0.51751361  0.95082563  0.96409391    -1.08350
O2292       O  0.51780517  0.52005548  0.53376827    -1.07850
C2293       C  0.57129580  0.57345167  0.00160159     1.06810
C2294       C  0.57108260  0.89677688  0.99677608     1.09430
C2295       C  0.98312987  0.57321169  0.58761305     1.06980
C2296       C  0.98396489  0.57423025  0.91092926     1.07340
C2297       C  0.98570761  0.89745914  0.91048089     1.06930
C2298       C  0.98208509  0.89706340  0.58710216     1.06480
C2299       C  0.57118817  0.98532803  0.58706837     1.06900
C2300       C  0.57112506  0.97897442  0.91046013     1.06420
H2301       H  0.53283642  0.93546921  0.54824257     0.33090
O2302       O  0.51837590  0.95003497  0.53386741    -1.29450
H2303       H  0.53298810  0.53480019  0.94921266     0.33120
O2304       O  0.51834222  0.52057657  0.96356083    -1.30830
C2305       C  0.97786666  0.77167446  0.62194505     0.00060
C2306       C  0.50823510  0.75360914  0.61283806    -0.11810
C2307       C  0.50904794  0.71730838  0.61324569     0.02300
C2308       C  0.97873137  0.69881820  0.62158088    -0.00020
C2309       C  0.94785295  0.71689209  0.62845079    -0.11750
C2310       C  0.94736682  0.75301794  0.62937997     0.02180
H2311       H  0.53197328  0.76782652  0.60849245     0.15160
H2312       H  0.92479696  0.70268564  0.63586135     0.15160
C2313       C  0.91640109  0.77029837  0.64170355     0.36820
C2314       C  0.54194439  0.69961818  0.60937356     0.36720
N2315       N  0.89199342  0.78423405  0.65242417    -0.43530
N2316       N  0.56815049  0.68498848  0.60710964    -0.43520
C2317       C  0.97896341  0.85998645  0.78583570     0.00060
C2318       C  0.00298398  0.87955384  0.76693838    -0.11810
C2319       C  0.00163770  0.88026116  0.73059195     0.02300
C2320       C  0.97573830  0.86140446  0.71288403    -0.00020
C2321       C  0.94977704  0.84483867  0.73213475    -0.11750
C2322       C  0.95129031  0.84380461  0.76823228     0.02180
H2323       H  0.02418984  0.89220519  0.78039088     0.15160
H2324       H  0.92942245  0.83077736  0.71876189     0.15160
C2325       C  0.92517730  0.82439243  0.78659557     0.36820
C2326       C  0.02875935  0.89783234  0.71201305     0.36720
N2327       N  0.90442904  0.80868692  0.80135514    -0.43530
N2328       N  0.05030651  0.91178721  0.69668173    -0.43520
C2329       C  0.98315617  0.61093013  0.78594611     0.00060
C2330       C  0.95160637  0.61796728  0.76919220    -0.11810
C2331       C  0.94968949  0.61870063  0.73303922     0.02300
C2332       C  0.97930814  0.61045683  0.71304520    -0.00020
C2333       C  0.01045314  0.60164991  0.72983995    -0.11750
C2334       C  0.01284502  0.60291351  0.76605732     0.02180
H2335       H  0.92908167  0.62538766  0.78440835     0.15160
H2336       H  0.53362117  0.59676000  0.71459434     0.15160
C2337       C  0.54661559  0.59954981  0.78205001     0.36820
C2338       C  0.91785961  0.63059298  0.71704280     0.36720
N2339       N  0.57367737  0.59707519  0.79493079    -0.43530
N2340       N  0.89246719  0.64028791  0.70415345    -0.43520
C2341       C  0.99766545  0.69938299  0.87701337     0.00060
C2342       C  0.97012087  0.71822002  0.89179198    -0.11810
C2343       C  0.97034846  0.75453492  0.89159325     0.02300
C2344       C  0.99856008  0.77229565  0.87675396    -0.00020
C2345       C  0.52735586  0.75342824  0.86480768    -0.11750
C2346       C  0.52713523  0.71723921  0.86486927     0.02180
H2347       H  0.94729276  0.70467319  0.90090131     0.15160
H2348       H  0.54911621  0.76700791  0.85343657     0.15160
C2349       C  0.55643857  0.69889433  0.85021691     0.36820
C2350       C  0.94002061  0.77320340  0.90335346     0.36720
N2351       N  0.57975223  0.68407406  0.83830879    -0.43530
N2352       N  0.91611893  0.78908939  0.91232731    -0.43520
C2353       C  0.69615054  0.99387564  0.62335613     0.00060
C2354       C  0.71373585  0.96598650  0.60780209    -0.11810
C2355       C  0.75014690  0.96466423  0.60765320     0.02300
C2356       C  0.76922410  0.99165625  0.62318192    -0.00020
C2357       C  0.75159627  0.52079095  0.63611693    -0.11750
C2358       C  0.71530229  0.52212912  0.63621498     0.02180
H2359       H  0.69905522  0.94414789  0.59802121     0.15160
H2360       H  0.76623566  0.54171315  0.64780502     0.15160
C2361       C  0.69816535  0.55200315  0.65104727     0.36820
C2362       C  0.76727483  0.93413874  0.59421227     0.36720
N2363       N  0.68436514  0.57594358  0.66285433    -0.43530
N2364       N  0.78115604  0.90972013  0.58353577    -0.43520
C2365       C  0.60268044  0.96344348  0.78404148     0.00060
C2366       C  0.62167074  0.93946527  0.76412380    -0.11810
C2367       C  0.62374144  0.94257609  0.72825205     0.02300
C2368       C  0.60630991  0.96998025  0.71144487    -0.00020
C2369       C  0.58306238  0.99067677  0.73052893    -0.11750
C2370       C  0.58069637  0.98720637  0.76668741     0.02180
H2371       H  0.63696203  0.91960597  0.77691849     0.15220
H2372       H  0.56815777  0.51067158  0.71749791     0.15160
C2373       C  0.55601435  0.50843235  0.78519270     0.36820
C2374       C  0.64492797  0.91801265  0.70935994     0.36720
N2375       N  0.53542751  0.52433115  0.80027052    -0.43530
N2376       N  0.66191307  0.89838445  0.69419501    -0.43520
C2377       C  0.86091177  0.97314251  0.78435854     0.00060
C2378       C  0.87614793  0.00124497  0.76720981    -0.11810
C2379       C  0.87647120  0.00246390  0.73087643     0.02300
C2380       C  0.86080327  0.97569480  0.71162916    -0.00020
C2381       C  0.84890558  0.94617722  0.72871933    -0.11750
C2382       C  0.84938828  0.94444943  0.76478468     0.02180
H2383       H  0.88564409  0.52311210  0.78205003     0.15160
H2384       H  0.83764087  0.92516130  0.71386312     0.15160
C2385       C  0.83637967  0.91360599  0.78126282     0.36820
C2386       C  0.89095667  0.53212910  0.71368555     0.36720
N2387       N  0.82596494  0.88898017  0.79460135    -0.43530
N2388       N  0.90273115  0.55531795  0.69902759    -0.43520
C2389       C  0.76929758  0.96650463  0.87317145     0.00060
C2390       C  0.75240186  0.93916946  0.85619654    -0.11810
C2391       C  0.71620957  0.93699836  0.85577329     0.02300
C2392       C  0.69596496  0.96289140  0.87224345    -0.00020
C2393       C  0.71290178  0.98828325  0.89197269    -0.11750
C2394       C  0.74932567  0.99011576  0.89278873     0.02180
H2395       H  0.76760049  0.92026483  0.84184199     0.15160
H2396       H  0.69766081  0.00818248  0.90452934     0.15160
C2397       C  0.76558306  0.01804187  0.91139391     0.36820
C2398       C  0.70057381  0.90874118  0.83686999     0.36720
N2399       N  0.77945373  0.04010522  0.92611003    -0.43530
N2400       N  0.68817962  0.88624085  0.82144055    -0.43520
C2401       C  0.60476990  0.69865449  0.99450770     0.00060
C2402       C  0.59706185  0.71852285  0.52390774    -0.11810
C2403       C  0.59733971  0.75467050  0.52247755     0.02300
C2404       C  0.60506256  0.77136453  0.99104728    -0.00020
C2405       C  0.61052168  0.75151341  0.96104604    -0.11750
C2406       C  0.61051272  0.71527783  0.96259938     0.02180
H2407       H  0.59363148  0.70578622  0.54854317     0.15160
H2408       H  0.61695598  0.76431077  0.93695128     0.15160
C2409       C  0.61909813  0.69566372  0.93189919     0.36820
C2410       C  0.59339358  0.77412824  0.55421826     0.36720
N2411       N  0.62616020  0.67981140  0.90741872    -0.43530
N2412       N  0.59073546  0.79002798  0.57951437    -0.43520
C2413       C  0.76931622  0.61285347  0.02007005     0.00060
C2414       C  0.75151780  0.58953359  0.99862511    -0.11810
C2415       C  0.71507026  0.58874615  0.99798212     0.02300
C2416       C  0.69580432  0.61149173  0.01931675    -0.00020
C2417       C  0.71353182  0.63166792  0.54371055    -0.11750
C2418       C  0.74987572  0.63236979  0.54438705     0.02180
H2419       H  0.76604346  0.57378512  0.98057363     0.15160
H2420       H  0.69900554  0.64853921  0.56097505     0.15160
C2421       C  0.76670121  0.65464382  0.56933186     0.36820
C2422       C  0.69805109  0.56662825  0.97320421     0.36720
N2423       N  0.78019990  0.67265850  0.58913882    -0.43530
N2424       N  0.68360281  0.54901948  0.95376056    -0.43520
C2425       C  0.69607971  0.85995480  0.50238270     0.00060
C2426       C  0.71436067  0.87714625  0.97618432    -0.11810
C2427       C  0.75077845  0.87790420  0.97666034     0.02300
C2428       C  0.76906407  0.86139584  0.50375155    -0.00020
C2429       C  0.75054196  0.84711523  0.53144398    -0.11750
C2430       C  0.71431709  0.84630819  0.53099249     0.02180
H2431       H  0.70036383  0.88772428  0.95419945     0.15160
H2432       H  0.76453557  0.83476881  0.55250148     0.15160
C2433       C  0.69643087  0.82978789  0.55930633     0.36820
C2434       C  0.76894605  0.89258975  0.94761466     0.36720
N2435       N  0.68206220  0.81649453  0.58191799    -0.43530
N2436       N  0.78406141  0.90407538  0.92452399    -0.43520
C2437       C  0.86041799  0.77216911  0.99864615     0.00060
C2438       C  0.86269029  0.75318202  0.96774560    -0.11810
C2439       C  0.86348261  0.71693487  0.96828171     0.02300
C2440       C  0.86118103  0.69945757  0.00016735    -0.00020
C2441       C  0.86047226  0.71828387  0.53106606    -0.11750
C2442       C  0.85996847  0.75441625  0.53051205     0.02180
H2443       H  0.86124867  0.76657592  0.94320308     0.15160
H2444       H  0.85792080  0.70485771  0.55556145     0.15160
C2445       C  0.85512664  0.77301669  0.56259786     0.36820
C2446       C  0.86392489  0.69825860  0.93585854     0.36720
N2447       N  0.85050520  0.78838028  0.58792662    -0.43530
N2448       N  0.86437951  0.68333370  0.90984142    -0.43520
loop_ 
_geom_bond_atom_site_label_1 
_geom_bond_atom_site_label_2 
_geom_bond_distance 
_geom_bond_site_symmetry_2 
_ccdc_geom_bond_type 
C1            C2   1.412       .  A
C1          C312   1.412       .  A
C1          C120   1.484       .  S
C2            C3   1.400       .  A
C2            H7   1.083       .  S
C3          C310   1.394       .  A
C3          C295   1.473       .  S
C4            C5   1.397   1_556  A
C4          C309   1.394       .  A
C4            H8   1.085       .  S
C5            C6   1.402       .  A
C5          C286   1.477       .  S
C6          C307   1.412   1_554  A
C6            H9   1.083       .  S
C10          C11   1.410       .  A
C10          C15   1.416       .  A
C10         C121   1.486       .  S
C11          C12   1.396       .  A
C11          H16   1.084       .  S
C12          C13   1.395       .  A
C12         C298   1.473       .  S
C13          C14   1.400       .  A
C13          H17   1.084       .  S
C14          C15   1.409       .  A
C14         C271   1.492       .  S
C15          H18   1.083       .  S
C19          C20   1.413       .  A
C19          C24   1.411       .  A
C19         C151   1.486       .  S
C20          C21   1.408       .  A
C20          H25   1.083       .  S
C21          C22   1.401       .  A
C21         C274   1.490       .  S
C22          C23   1.396       .  A
C22          H26   1.085       .  S
C23          C24   1.399       .  A
C23         C259   1.475       .  S
C24          H27   1.084       .  S
C28          C29   1.410       .  A
C28         C339   1.411       .  A
C28         C458   1.481       .  S
C29          C30   1.399       .  A
C29          H34   1.084   1_556  S
C30          C31   1.399       .  A
C30         C283   1.476   1_556  S
C31         C338   1.396       .  A
C31          H35   1.085       .  S
C32          C33   1.400       .  A
C32         C337   1.396       .  A
C32         C262   1.475       .  S
C33         C334   1.412       .  A
C33          H36   1.083       .  S
C37          C38   1.414       .  A
C37          C42   1.413       .  A
C37         C123   1.486       .  S
C38          C39   1.405       .  A
C38          H43   1.083       .  S
C39          C40   1.397       .  A
C39         C247   1.487       .  S
C40          C41   1.397       .  A
C40          H44   1.085       .  S
C41          C42   1.400       .  A
C41         C235   1.481       .  S
C42          H45   1.083       .  S
C46          C47   1.414       .  A
C46          C51   1.415       .  A
C46         C158   1.488       .  S
C47          C48   1.405       .  A
C47          H52   1.083       .  S
C48          C49   1.397       .  A
C48         C250   1.489       .  S
C49          C50   1.400       .  A
C49          H53   1.084       .  S
C50          C51   1.403       .  A
C50         C223   1.493       .  S
C51          H54   1.081       .  S
C55          C56   1.412       .  A
C55          C60   1.410       .  A
C55         C157   1.481       .  S
C56          C57   1.400       .  A
C56          H61   1.083       .  S
C57          C58   1.400       .  A
C57         C226   1.483       .  S
C58          C59   1.398       .  A
C58          H62   1.085       .  S
C59          C60   1.399       .  A
C59         C211   1.477       .  S
C60          H63   1.084       .  S
C64          C65   1.410       .  A
C64          C69   1.411       .  A
C64         C122   1.480       .  S
C65          C66   1.398       .  A
C65          H70   1.084       .  S
C66          C67   1.398       .  A
C66         C238   1.476       .  S
C67          C68   1.398       .  A
C67          H71   1.085       .  S
C68          C69   1.401       .  A
C68         C214   1.477       .  S
C69          H72   1.083       .  S
C73          C74   1.415       .  A
C73          C78   1.413       .  A
C73         C154   1.488       .  S
C74          C75   1.403       .  A
C74          H79   1.083       .  S
C75          C76   1.398       .  A
C75         C199   1.481       .  S
C76          C77   1.395       .  A
C76          H80   1.085       .  S
C77          C78   1.402       .  A
C77         C187   1.476       .  S
C78          H81   1.083       .  S
C82          C83   1.412       .  A
C82          C87   1.411       .  A
C82         C155   1.484       .  S
C83          C84   1.401       .  A
C83          H88   1.083       .  S
C84          C85   1.397       .  A
C84         C202   1.480       .  S
C85          C86   1.400       .  A
C85          H89   1.085       .  S
C86          C87   1.401       .  A
C86         C175   1.480       .  S
C87          H90   1.083       .  S
C91          C92   1.415       .  A
C91          C96   1.412       .  A
C91         C153   1.488       .  S
C92          C93   1.404       .  A
C92          H97   1.083       .  S
C93          C94   1.395       .  A
C93         C190   1.478       .  S
C94          C95   1.394       .  A
C94          H98   1.085       .  S
C95          C96   1.400       .  A
C95         C166   1.475       .  S
C96          H99   1.083       .  S
C100        C101   1.415       .  A
C100        C105   1.413       .  A
C100        C156   1.488       .  S
C101        C102   1.405       .  A
C101        H106   1.083       .  S
C102        C103   1.398       .  A
C102        C178   1.486       .  S
C103        C104   1.395       .  A
C103        H107   1.085       .  S
C104        C105   1.401       .  A
C104        C163   1.478       .  S
C105        H108   1.083       .  S
O109       Zr145   2.434       .  S
O109        C120   1.292       .  A
O110       Zr144   2.443       .  S
O110        C121   1.294       .  A
O111       Zr423   2.436   1_554  S
O111        C122   1.292       .  A
O112       Zr117   2.442       .  S
O112        C123   1.294       .  A
O113       Zr147   2.437       .  S
O113        C123   1.293       .  A
O114       Zr146   2.431       .  S
O114        C122   1.292       .  A
O115       Zr729   2.441   1_545  S
O115        C121   1.293       .  A
O116       Zr117   2.440       .  S
O116        C120   1.293       .  A
Zr117       O417   2.436       .  S
Zr117       O727   2.441       .  S
Zr117       O127   2.340       .  S
Zr117       O730   2.344       .  S
Zr117       O425   2.343       .  S
Zr117      O1043   2.342       .  S
O118       Zr144   2.342       .  S
O118       Zr729   2.344   1_545  S
O118       Zr759   2.341   1_545  S
O119       Zr146   2.339       .  S
O119       Zr423   2.343   1_554  S
O119       Zr451   2.335   1_554  S
H124        O125   0.966       .  S
O125      Zr1035   2.342   1_544  S
O125       Zr450   2.339   1_554  S
O125       Zr758   2.340   1_545  S
H126        O127   0.966       .  S
O127       Zr145   2.341       .  S
O127       Zr147   2.342       .  S
O128      Zr1368   2.438   1_455  S
O128        C151   1.293       .  A
O129      Zr1369   2.430   1_455  S
O129        C152   1.291       .  A
O130       Zr758   2.442   1_545  S
O130        C153   1.293       .  A
O131       Zr759   2.448   1_545  S
O131        C154   1.295       .  A
O132       Zr147   2.440       .  S
O132        C155   1.293       .  A
O133       Zr146   2.441       .  S
O133        C156   1.293       .  A
O134       Zr454   2.437   1_554  S
O134        C157   1.293       .  A
O135       Zr148   2.448       .  S
O135        C158   1.294       .  A
O136      Zr1370   2.431   1_455  S
O136        C157   1.292       .  A
O137      Zr1371   2.434   1_455  S
O137        C158   1.292       .  A
O138       Zr450   2.442   1_554  S
O138        C153   1.294       .  A
O139       Zr451   2.444   1_554  S
O139        C156   1.294       .  A
O140       Zr145   2.435       .  S
O140        C155   1.292       .  A
O141       Zr144   2.438       .  S
O141        C154   1.293       .  A
O142       Zr760   2.446   1_545  S
O142        C151   1.294       .  A
O143       Zr148   2.438       .  S
O143        C152   1.293       .  A
Zr144      O1352   2.438       .  S
Zr144       O444   2.442       .  S
Zr144       O431   2.339       .  S
Zr144      O1680   2.337       .  S
Zr144      O1386   2.346       .  S
Zr145      O1353   2.430       .  S
Zr145       O445   2.444       .  S
Zr145       O425   2.335       .  S
Zr145      O1373   2.334       .  S
Zr145      O1690   2.340       .  S
Zr146       O742   2.442       .  S
Zr146      O1360   2.431       .  S
Zr146       O737   2.340       .  S
Zr146      O1986   2.338       .  S
Zr146      O1384   2.341       .  S
Zr147       O743   2.448       .  S
Zr147      O1361   2.434       .  S
Zr147       O730   2.341       .  S
Zr147      O1373   2.334       .  S
Zr147      O1998   2.343       .  S
Zr148       O440   2.437       .  S
Zr148       O754   2.446       .  S
Zr148       O149   2.332       .  S
Zr148      O1068   2.338       .  S
Zr148       O774   2.344       .  S
Zr148       O466   2.346       .  S
O149      Zr1369   2.334   1_455  S
O149      Zr1371   2.334   1_455  S
O150      Zr1674   2.337   1_454  S
O150      Zr1982   2.338   1_445  S
O150      Zr1066   2.338   1_544  S
C152        C334   1.481       .  S
H159        O160   0.966       .  S
O160      Zr1675   2.340   1_454  S
O160      Zr1370   2.341   1_455  S
O160       Zr454   2.347   1_554  S
H161        O162   0.966       .  S
O162      Zr1368   2.346   1_455  S
O162      Zr1983   2.343   1_445  S
O162       Zr760   2.344   1_545  S
C163        C168   1.411       .  A
C163       C1388   1.403       .  A
C164        C165   1.403       .  A
C164       C1387   1.403   1_455  A
C164        H169   1.082       .  S
C165       C1390   1.410   1_455  A
C165        C172   1.444       .  S
C166        C167   1.401       .  A
C166       C1389   1.410       .  A
C167        C168   1.396       .  A
C167        H170   1.085       .  S
C168        C171   1.444       .  S
C171        N173   1.157       .  T
C172        N174   1.157       .  T
C175        C176   1.404       .  A
C175        C180   1.411       .  A
C176        C177   1.405       .  A
C176        H181   1.085       .  S
C177        C178   1.413       .  A
C177        C184   1.442       .  S
C178        C179   1.405       .  A
C179        C180   1.396       .  A
C179        H182   1.085       .  S
C180        C183   1.445       .  S
C183        N185   1.157       .  T
C184        N186   1.156       .  T
C187        C188   1.401       .  A
C187        C192   1.410       .  A
C188        C189   1.399       .  A
C188        H193   1.085       .  S
C189        C190   1.412       .  A
C189        C196   1.445       .  S
C190        C191   1.403       .  A
C191        C192   1.402       .  A
C191       H1418   1.085       .  S
C192       C1419   1.444       .  S
H194       C1415   1.085       .  S
C195       C1416   1.444       .  S
C195        N197   1.157       .  T
C196        N198   1.157       .  T
C199        C200   1.404       .  A
C199       C1428   1.412       .  A
C200        C201   1.403       .  A
C200        H205   1.085       .  S
C201        C202   1.411       .  A
C201        C208   1.442       .  S
C202       C1427   1.401       .  A
C203        C204   1.399       .  A
C203       C1426   1.401   1_455  A
C203        H206   1.085       .  S
C204       C1423   1.412   1_455  A
C204        C207   1.444       .  S
C207        N209   1.157       .  T
C208        N210   1.156       .  T
C211        C212   1.404       .  A
C211        C828   1.409       .  A
C212        C213   1.402       .  A
C212        H217   1.085       .  S
C213        C214   1.411       .  A
C213        C220   1.444       .  S
C214        C827   1.403       .  A
C215        C216   1.398       .  A
C215        C826   1.403   1_545  A
C215        H218   1.085       .  S
C216        C823   1.409   1_545  A
C216        C219   1.444       .  S
C219        N221   1.157       .  T
C220        N222   1.157       .  T
C223        C224   1.405       .  A
C223        C228   1.415       .  A
C224        C225   1.393       .  A
C224        H229   1.085       .  S
C225        C226   1.410       .  A
C225        C232   1.445       .  S
C226        C227   1.405       .  A
C227        C228   1.406       .  A
C227        H842   1.085       .  S
C228        C843   1.441       .  S
H230        C839   1.085   1_545  S
C231        C840   1.441   1_545  S
C231        N233   1.157       .  T
C232        N234   1.157       .  T
C235        C236   1.405       .  A
C235        C240   1.413       .  A
C236        C237   1.404       .  A
C236        H853   1.084       .  S
C237        C238   1.410       .  A
C237        C856   1.442       .  S
C238        C239   1.399       .  A
C239        C240   1.395       .  A
C239        H242   1.085       .  S
C240        C243   1.445       .  S
H241        C848   1.084       .  S
C243        N245   1.157       .  T
C244        C849   1.442       .  S
C244        N246   1.156       .  T
C247        C248   1.404       .  A
C247        C252   1.410       .  A
C248        C249   1.396       .  A
C248        H253   1.085       .  S
C249        C250   1.415       .  A
C249        C256   1.445       .  S
C250        C251   1.403       .  A
C251        C252   1.404       .  A
C251        H254   1.079       .  S
C252        C255   1.440       .  S
C255        N257   1.156       .  T
C256        N258   1.157       .  T
C259        C264   1.410       .  A
C259        C566   1.400       .  A
C260        C261   1.398       .  A
C260        C565   1.400   1_554  A
C260        H265   1.081       .  S
C261        C568   1.409   1_554  A
C261        C268   1.444       .  S
C262        C263   1.403       .  A
C262        C567   1.409       .  A
C263        C264   1.402       .  A
C263        H266   1.085       .  S
C264        C267   1.443       .  S
C267        N269   1.157       .  T
C268        N270   1.157       .  T
C271        C272   1.403       .  A
C271        C582   1.415       .  A
C272        C273   1.404       .  A
C272        H277   1.079       .  S
C273        C274   1.412       .  A
C273        C280   1.441       .  S
C274        C581   1.405       .  A
C275        C276   1.400       .  A
C275        C580   1.405       .  A
C275        H278   1.085       .  S
C276        C577   1.415       .  A
C276        C279   1.445       .  S
C279        N281   1.157       .  T
C280        N282   1.156       .  T
C283        C288   1.410       .  A
C283        C590   1.403   1_554  A
C284        C285   1.402       .  A
C284        C589   1.403       .  A
C284        H289   1.085       .  S
C285        C592   1.410       .  A
C285        C292   1.442       .  S
C286        C287   1.402       .  A
C286        C591   1.410   1_554  A
C287        C288   1.395       .  A
C287        H290   1.085       .  S
C288        C291   1.445       .  S
C291        N293   1.157       .  T
C292        N294   1.156       .  T
C295        C296   1.402       .  A
C295        C606   1.408       .  A
C296        C297   1.401       .  A
C296        H301   1.083       .  S
C297        C298   1.409       .  A
C297        C304   1.444       .  S
C298        C605   1.402       .  A
C299        C300   1.397       .  A
C299        C604   1.402       .  A
C299        H302   1.085       .  S
C300        C601   1.408   1_554  A
C300        C303   1.443       .  S
C303        N305   1.156       .  T
C304        N306   1.157       .  T
C307        C308   1.412       .  A
C307        C426   1.483       .  S
C308        C309   1.399       .  A
C308        H313   1.083       .  S
C309        C601   1.473       .  S
C310        C311   1.397       .  A
C310        H314   1.085       .  S
C311        C312   1.402       .  A
C311        C592   1.477       .  S
C312        H315   1.083       .  S
C316        C317   1.410   1_554  A
C316        C321   1.416       .  A
C316        C427   1.486       .  S
C317        C318   1.396   1_556  A
C317        H322   1.084       .  S
C318        C319   1.395       .  A
C318        C604   1.473       .  S
C319        C320   1.400       .  A
C319        H323   1.084       .  S
C320        C321   1.409       .  A
C320        C577   1.492       .  S
C321        H324   1.083       .  S
C325        C326   1.413       .  A
C325        C330   1.411   1_554  A
C325        C457   1.486       .  S
C326        C327   1.408       .  A
C326        H331   1.083       .  S
C327        C328   1.401       .  A
C327        C580   1.490       .  S
C328        C329   1.396   1_554  A
C328        H332   1.085       .  S
C329        C330   1.399       .  A
C329        C565   1.475       .  S
C330        H333   1.084       .  S
C334        C335   1.410       .  A
C335        C336   1.399       .  A
C335        H340   1.084       .  S
C336        C337   1.399       .  A
C336        C589   1.476       .  S
C337        H341   1.085       .  S
C338        C339   1.400       .  A
C338        C568   1.475       .  S
C339        H342   1.083       .  S
C343        C344   1.414       .  A
C343        C348   1.413       .  A
C343        C429   1.486       .  S
C344        C345   1.405       .  A
C344        H349   1.083       .  S
C345        C346   1.397       .  A
C345        C553   1.487       .  S
C346        C347   1.397       .  A
C346        H350   1.085       .  S
C347        C348   1.400       .  A
C347        C541   1.481       .  S
C348        H351   1.083       .  S
C352        C353   1.414       .  A
C352        C357   1.415       .  A
C352        C464   1.488       .  S
C353        C354   1.405       .  A
C353        H358   1.083       .  S
C354        C355   1.397       .  A
C354        C556   1.489       .  S
C355        C356   1.401       .  A
C355        H359   1.084       .  S
C356        C357   1.403       .  A
C356        C529   1.493       .  S
C357        H360   1.081       .  S
C361        C362   1.412       .  A
C361        C366   1.410       .  A
C361        C463   1.481       .  S
C362        C363   1.400       .  A
C362        H367   1.083       .  S
C363        C364   1.400       .  A
C363        C532   1.483       .  S
C364        C365   1.398       .  A
C364        H368   1.085       .  S
C365        C366   1.399       .  A
C365        C517   1.477       .  S
C366        H369   1.084       .  S
C370        C371   1.410       .  A
C370        C375   1.411       .  A
C370        C428   1.480       .  S
C371        C372   1.398       .  A
C371        H376   1.084       .  S
C372        C373   1.398       .  A
C372        C544   1.476       .  S
C373        C374   1.398       .  A
C373        H377   1.085       .  S
C374        C375   1.401       .  A
C374        C520   1.477       .  S
C375        H378   1.083       .  S
C379        C380   1.415       .  A
C379        C384   1.413       .  A
C379        C460   1.488       .  S
C380        C381   1.403       .  A
C380        H385   1.083       .  S
C381        C382   1.398       .  A
C381        C505   1.481       .  S
C382        C383   1.395       .  A
C382        H386   1.085       .  S
C383        C384   1.402       .  A
C383        C493   1.476       .  S
C384        H387   1.083       .  S
C388        C389   1.412       .  A
C388        C393   1.411       .  A
C388        C461   1.484       .  S
C389        C390   1.401       .  A
C389        H394   1.083       .  S
C390        C391   1.397       .  A
C390        C508   1.480       .  S
C391        C392   1.400       .  A
C391        H395   1.085       .  S
C392        C393   1.401       .  A
C392        C481   1.480       .  S
C393        H396   1.083       .  S
C397        C398   1.415       .  A
C397        C402   1.412       .  A
C397        C459   1.488       .  S
C398        C399   1.404       .  A
C398        H403   1.083       .  S
C399        C400   1.395       .  A
C399        C496   1.478       .  S
C400        C401   1.394       .  A
C400        H404   1.085       .  S
C401        C402   1.400       .  A
C401        C472   1.475       .  S
C402        H405   1.083       .  S
C406        C407   1.415       .  A
C406        C411   1.413       .  A
C406        C462   1.488       .  S
C407        C408   1.405       .  A
C407        H412   1.083       .  S
C408        C409   1.398       .  A
C408        C484   1.486       .  S
C409        C410   1.395       .  A
C409        H413   1.085       .  S
C410        C411   1.401       .  A
C410        C469   1.478       .  S
C411        H414   1.083       .  S
O415       Zr451   2.434       .  S
O415        C426   1.292       .  A
O416       Zr450   2.442       .  S
O416        C427   1.294   1_556  A
O417        C428   1.292       .  A
O418       Zr423   2.442       .  S
O418        C429   1.294       .  A
O419       Zr453   2.437       .  S
O419        C429   1.293       .  A
O420       Zr452   2.431       .  S
O420        C428   1.292       .  A
O421      Zr1035   2.442   1_545  S
O421        C427   1.293   1_556  A
O422       Zr423   2.440       .  S
O422        C426   1.293       .  A
Zr423      O1033   2.442       .  S
Zr423      O1036   2.344       .  S
Zr423       O433   2.340       .  S
Zr423       O737   2.342   1_556  S
O424      Zr1035   2.344   1_545  S
O424       Zr450   2.342       .  S
O424      Zr1065   2.341   1_545  S
O425       Zr452   2.339       .  S
H430        O431   0.966       .  S
O431       Zr729   2.342   1_545  S
O431      Zr1064   2.340   1_545  S
H432        O433   0.966       .  S
O433       Zr451   2.341       .  S
O433       Zr453   2.342       .  S
O434      Zr1674   2.438   1_454  S
O434        C457   1.293       .  A
O435      Zr1675   2.430   1_455  S
O435        C458   1.291       .  A
O436      Zr1064   2.442   1_545  S
O436        C459   1.293       .  A
O437      Zr1065   2.448   1_545  S
O437        C460   1.295       .  A
O438       Zr453   2.440       .  S
O438        C461   1.293       .  A
O439       Zr452   2.440       .  S
O439        C462   1.293       .  A
O440        C463   1.293       .  A
O441       Zr454   2.448       .  S
O441        C464   1.294       .  A
O442      Zr1676   2.431   1_455  S
O442        C463   1.292       .  A
O443      Zr1677   2.434   1_455  S
O443        C464   1.292       .  A
O444        C459   1.294       .  A
O445        C462   1.294       .  A
O446       Zr451   2.435       .  S
O446        C461   1.292       .  A
O447       Zr450   2.438       .  S
O447        C460   1.293       .  A
O448      Zr1066   2.446   1_544  S
O448        C457   1.294       .  A
O449       Zr454   2.438       .  S
O449        C458   1.293       .  A
Zr450      O1658   2.438   1_556  S
Zr450      O1374   2.337   1_556  S
Zr450      O1692   2.346       .  S
Zr451      O1659   2.430       .  S
Zr451      O1679   2.334       .  S
Zr451      O1384   2.340   1_556  S
Zr452      O1048   2.442       .  S
Zr452      O1666   2.431       .  S
Zr452      O1043   2.340       .  S
Zr452      O2292   2.337       .  S
Zr452      O1690   2.341       .  S
Zr453      O1049   2.448       .  S
Zr453      O1667   2.434       .  S
Zr453      O1036   2.341       .  S
Zr453      O1679   2.334       .  S
Zr453      O2304   2.344       .  S
Zr454      O1060   2.446   1_556  S
Zr454       O455   2.332       .  S
Zr454       O762   2.338   1_556  S
Zr454      O1080   2.344       .  S
O455      Zr1675   2.334   1_455  S
O455      Zr1677   2.334   1_455  S
O456      Zr1368   2.337   1_455  S
O456      Zr2288   2.337   1_445  S
O456       Zr760   2.338   1_545  S
H465        O466   0.966       .  S
O466      Zr1369   2.340   1_455  S
O466      Zr1676   2.341   1_455  S
H467        O468   0.966       .  S
O468      Zr1674   2.346   1_455  S
O468      Zr2289   2.344   1_445  S
O468      Zr1066   2.344   1_545  S
C469       C1694   1.403       .  A
C469        C474   1.411       .  A
C470       C1693   1.403   1_455  A
C470        C471   1.403       .  A
C470        H475   1.082       .  S
C471       C1696   1.410   1_455  A
C471        C478   1.444       .  S
C472       C1695   1.410       .  A
C472        C473   1.401       .  A
C473        C474   1.396       .  A
C473        H476   1.085       .  S
C474        C477   1.444       .  S
C477        N479   1.157       .  T
C478        N480   1.157       .  T
C481        C482   1.404       .  A
C481        C486   1.411       .  A
C482        C483   1.405       .  A
C482        H487   1.085       .  S
C483        C484   1.413       .  A
C483        C490   1.442       .  S
C484        C485   1.405       .  A
C485        C486   1.396       .  A
C485        H488   1.085       .  S
C486        C489   1.445       .  S
C489        N491   1.157       .  T
C490        N492   1.156       .  T
C493        C494   1.401       .  A
C493        C498   1.410       .  A
C494        C495   1.399       .  A
C494        H499   1.085       .  S
C495        C496   1.412       .  A
C495        C502   1.445       .  S
C496        C497   1.403       .  A
C497        C498   1.402       .  A
C497       H1724   1.085       .  S
C498       C1725   1.444       .  S
H500       C1721   1.085       .  S
C501       C1722   1.444       .  S
C501        N503   1.157       .  T
C502        N504   1.157       .  T
C505        C506   1.404       .  A
C505       C1734   1.412       .  A
C506        C507   1.403       .  A
C506        H511   1.085       .  S
C507        C508   1.411       .  A
C507        C514   1.442       .  S
C508       C1733   1.401       .  A
C509       C1732   1.401   1_455  A
C509        C510   1.399       .  A
C509        H512   1.085       .  S
C510       C1729   1.412   1_455  A
C510        C513   1.444       .  S
C513        N515   1.157       .  T
C514        N516   1.156       .  T
C517        C518   1.404       .  A
C517       C1134   1.409       .  A
C518        C519   1.402       .  A
C518        H523   1.085       .  S
C519        C520   1.411       .  A
C519        C526   1.444       .  S
C520       C1133   1.403       .  A
C521       C1132   1.403   1_545  A
C521        C522   1.398       .  A
C521        H524   1.085       .  S
C522       C1129   1.409   1_545  A
C522        C525   1.444       .  S
C525        N527   1.157       .  T
C526        N528   1.157       .  T
C529        C530   1.405       .  A
C529        C534   1.415       .  A
C530        C531   1.393       .  A
C530        H535   1.085       .  S
C531        C532   1.410       .  A
C531        C538   1.445       .  S
C532        C533   1.405       .  A
C533        C534   1.406       .  A
C533       H1148   1.085       .  S
C534       C1149   1.441       .  S
H536       C1145   1.085   1_545  S
C537       C1146   1.441   1_545  S
C537        N539   1.157       .  T
C538        N540   1.157       .  T
C541        C542   1.405       .  A
C541        C546   1.413       .  A
C542        C543   1.404       .  A
C542       H1159   1.084       .  S
C543        C544   1.410       .  A
C543       C1162   1.442       .  S
C544        C545   1.399       .  A
C545        C546   1.395       .  A
C545        H548   1.085       .  S
C546        C549   1.445       .  S
H547       C1154   1.084       .  S
C549        N551   1.157       .  T
C550       C1155   1.442       .  S
C550        N552   1.156       .  T
C553        C554   1.404       .  A
C553        C558   1.410       .  A
C554        C555   1.396       .  A
C554        H559   1.085       .  S
C555        C556   1.415       .  A
C555        C562   1.445       .  S
C556        C557   1.403       .  A
C557        C558   1.404       .  A
C557        H560   1.079       .  S
C558        C561   1.440       .  S
C561        N563   1.156       .  T
C562        N564   1.157       .  T
C565        C570   1.410       .  A
C566        C567   1.398       .  A
C566        H571   1.081       .  S
C567        C574   1.444       .  S
C568        C569   1.403       .  A
C569        C570   1.402       .  A
C569        H572   1.085       .  S
C570        C573   1.443       .  S
C573        N575   1.157       .  T
C574        N576   1.157       .  T
C577        C578   1.403   1_554  A
C578        C579   1.404       .  A
C578        H583   1.079       .  S
C579        C580   1.411   1_556  A
C579        C586   1.440       .  S
C581        C582   1.400       .  A
C581        H584   1.085       .  S
C582        C585   1.445       .  S
C585        N587   1.157       .  T
C586        N588   1.156       .  T
C589        C594   1.410       .  A
C590        C591   1.402       .  A
C590        H595   1.085       .  S
C591        C598   1.442       .  S
C592        C593   1.402       .  A
C593        C594   1.395       .  A
C593        H596   1.085       .  S
C594        C597   1.445       .  S
C597        N599   1.157       .  T
C598        N600   1.156       .  T
C601        C602   1.402       .  A
C602        C603   1.401       .  A
C602        H607   1.083       .  S
C603        C604   1.409   1_556  A
C603        C610   1.444       .  S
C605        C606   1.397       .  A
C605        H608   1.085       .  S
C606        C609   1.443       .  S
C609        N611   1.156       .  T
C610        N612   1.157       .  T
C613        C614   1.412       .  A
C613        C924   1.412       .  A
C613        C732   1.484       .  S
C614        C615   1.400       .  A
C614        H619   1.083       .  S
C615        C922   1.394       .  A
C615        C907   1.473       .  S
C616        C921   1.394       .  A
C616        C617   1.397   1_556  A
C616        H620   1.085       .  S
C617        C618   1.402       .  A
C617        C898   1.477       .  S
C618        C919   1.412   1_554  A
C618        H621   1.083       .  S
C622        C623   1.410       .  A
C622        C627   1.416       .  A
C622        C733   1.486       .  S
C623        C624   1.396       .  A
C623        H628   1.084       .  S
C624        C625   1.395       .  A
C624        C910   1.473       .  S
C625        C626   1.400       .  A
C625        H629   1.084       .  S
C626        C627   1.409       .  A
C626        C883   1.492       .  S
C627        H630   1.083       .  S
C631        C632   1.413       .  A
C631        C636   1.411       .  A
C631        C763   1.486       .  S
C632        C633   1.408       .  A
C632        H637   1.083       .  S
C633        C634   1.401       .  A
C633        C886   1.490       .  S
C634        C635   1.396       .  A
C634        H638   1.085       .  S
C635        C636   1.399       .  A
C635        C871   1.475       .  S
C636        H639   1.084       .  S
C640        C641   1.410       .  A
C640        C951   1.411       .  A
C640       C1070   1.481       .  S
C641        C642   1.399       .  A
C641        H646   1.084   1_556  S
C642        C643   1.399       .  A
C642        C895   1.476   1_556  S
C643        C950   1.396       .  A
C643        H647   1.085       .  S
C644        C949   1.396       .  A
C644        C645   1.400       .  A
C644        C874   1.475       .  S
C645        C946   1.412       .  A
C645        H648   1.083       .  S
C649        C650   1.414       .  A
C649        C654   1.413       .  A
C649        C735   1.486       .  S
C650        C651   1.405       .  A
C650        H655   1.083       .  S
C651        C652   1.397       .  A
C651        C859   1.487       .  S
C652        C653   1.397       .  A
C652        H656   1.085       .  S
C653        C654   1.400       .  A
C653        C847   1.481       .  S
C654        H657   1.083       .  S
C658        C659   1.414       .  A
C658        C663   1.415       .  A
C658        C770   1.488       .  S
C659        C660   1.405       .  A
C659        H664   1.083       .  S
C660        C661   1.397       .  A
C660        C862   1.489       .  S
C661        C662   1.400       .  A
C661        H665   1.084       .  S
C662        C663   1.403       .  A
C662        C835   1.493       .  S
C663        H666   1.081       .  S
C667        C668   1.412       .  A
C667        C672   1.410       .  A
C667        C769   1.481       .  S
C668        C669   1.400       .  A
C668        H673   1.083       .  S
C669        C670   1.400       .  A
C669        C838   1.483       .  S
C670        C671   1.398       .  A
C670        H674   1.085       .  S
C671        C672   1.399       .  A
C671        C823   1.477       .  S
C672        H675   1.084       .  S
C676        C677   1.410       .  A
C676        C681   1.411       .  A
C676        C734   1.480       .  S
C677        C678   1.398       .  A
C677        H682   1.084       .  S
C678        C679   1.398       .  A
C678        C850   1.476       .  S
C679        C680   1.398       .  A
C679        H683   1.085       .  S
C680        C681   1.401       .  A
C680        C826   1.477       .  S
C681        H684   1.083       .  S
C685        C686   1.415       .  A
C685        C690   1.413       .  A
C685        C766   1.488       .  S
C686        C687   1.403       .  A
C686        H691   1.083       .  S
C687        C688   1.398       .  A
C687        C811   1.481       .  S
C688        C689   1.395       .  A
C688        H692   1.085       .  S
C689        C690   1.402       .  A
C689        C799   1.476       .  S
C690        H693   1.083       .  S
C694        C695   1.412       .  A
C694        C699   1.411       .  A
C694        C767   1.484       .  S
C695        C696   1.401       .  A
C695        H700   1.083       .  S
C696        C697   1.397       .  A
C696        C814   1.480       .  S
C697        C698   1.400       .  A
C697        H701   1.085       .  S
C698        C699   1.401       .  A
C698        C787   1.480       .  S
C699        H702   1.083       .  S
C703        C704   1.415       .  A
C703        C708   1.412       .  A
C703        C765   1.488       .  S
C704        C705   1.404       .  A
C704        H709   1.083       .  S
C705        C706   1.395       .  A
C705        C802   1.478       .  S
C706        C707   1.394       .  A
C706        H710   1.085       .  S
C707        C708   1.400       .  A
C707        C778   1.475       .  S
C708        H711   1.083       .  S
C712        C713   1.415       .  A
C712        C717   1.413       .  A
C712        C768   1.488       .  S
C713        C714   1.405       .  A
C713        H718   1.083       .  S
C714        C715   1.398       .  A
C714        C790   1.486       .  S
C715        C716   1.395       .  A
C715        H719   1.085       .  S
C716        C717   1.401       .  A
C716        C775   1.478       .  S
C717        H720   1.083       .  S
O721       Zr757   2.434       .  S
O721        C732   1.292       .  A
O722       Zr756   2.443       .  S
O722        C733   1.294       .  A
O723      Zr1035   2.436   1_554  S
O723        C734   1.292       .  A
O724       Zr729   2.442       .  S
O724        C735   1.294       .  A
O725       Zr759   2.437       .  S
O725        C735   1.293       .  A
O726       Zr758   2.431       .  S
O726        C734   1.292       .  A
O727        C733   1.293       .  A
O728       Zr729   2.440       .  S
O728        C732   1.293       .  A
Zr729      O1029   2.436       .  S
Zr729      O1037   2.343       .  S
Zr729       O739   2.340       .  S
O730       Zr756   2.342       .  S
O731      Zr1035   2.343   1_554  S
O731      Zr1063   2.335   1_554  S
O731       Zr758   2.339       .  S
H736        O737   0.966       .  S
O737      Zr1062   2.339   1_554  S
H738        O739   0.966       .  S
O739       Zr757   2.341       .  S
O739       Zr759   2.342       .  S
O740      Zr1980   2.438   1_455  S
O740        C763   1.293       .  A
O741      Zr1981   2.430   1_455  S
O741        C764   1.291       .  A
O742        C765   1.293       .  A
O743        C766   1.295       .  A
O744       Zr759   2.440       .  S
O744        C767   1.293       .  A
O745       Zr758   2.441       .  S
O745        C768   1.293       .  A
O746      Zr1066   2.437   1_554  S
O746        C769   1.293       .  A
O747       Zr760   2.448       .  S
O747        C770   1.294       .  A
O748      Zr1982   2.431   1_455  S
O748        C769   1.292       .  A
O749      Zr1983   2.434   1_455  S
O749        C770   1.292       .  A
O750      Zr1062   2.442   1_554  S
O750        C765   1.294       .  A
O751      Zr1063   2.444   1_554  S
O751        C768   1.294       .  A
O752       Zr757   2.435       .  S
O752        C767   1.292       .  A
O753       Zr756   2.438       .  S
O753        C766   1.293       .  A
O754        C763   1.294       .  A
O755       Zr760   2.438       .  S
O755        C764   1.293       .  A
Zr756      O1964   2.438       .  S
Zr756      O1056   2.442       .  S
Zr756      O1043   2.339       .  S
Zr756      O2292   2.337       .  S
Zr756      O1998   2.346       .  S
Zr757      O1965   2.430       .  S
Zr757      O1057   2.444       .  S
Zr757      O1037   2.335       .  S
Zr757      O1985   2.334       .  S
Zr757      O2302   2.340       .  S
Zr758      O1972   2.431       .  S
Zr758      O1374   2.338   1_565  S
Zr758      O1996   2.341       .  S
Zr759      O1973   2.434       .  S
Zr759      O1985   2.334       .  S
Zr759      O1386   2.343   1_565  S
Zr760      O1052   2.437       .  S
Zr760       O761   2.332       .  S
Zr760      O1078   2.346       .  S
O761      Zr1981   2.334   1_455  S
O761      Zr1983   2.334   1_455  S
O762      Zr2286   2.337   1_454  S
O762      Zr1370   2.338   1_455  S
C764        C946   1.481       .  S
H771        O772   0.966       .  S
O772      Zr2287   2.340   1_454  S
O772      Zr1982   2.341   1_455  S
O772      Zr1066   2.347   1_554  S
H773        O774   0.966       .  S
O774      Zr1980   2.346   1_455  S
O774      Zr1371   2.343   1_455  S
C775       C2000   1.403       .  A
C775        C780   1.411       .  A
C776       C1999   1.403   1_455  A
C776        C777   1.403       .  A
C776        H781   1.082       .  S
C777       C2002   1.410   1_455  A
C777        C784   1.444       .  S
C778       C2001   1.410       .  A
C778        C779   1.401       .  A
C779        C780   1.396       .  A
C779        H782   1.085       .  S
C780        C783   1.444       .  S
C783        N785   1.157       .  T
C784        N786   1.157       .  T
C787        C788   1.404       .  A
C787        C792   1.411       .  A
C788        C789   1.405       .  A
C788        H793   1.085       .  S
C789        C790   1.413       .  A
C789        C796   1.442       .  S
C790        C791   1.405       .  A
C791        C792   1.396       .  A
C791        H794   1.085       .  S
C792        C795   1.445       .  S
C795        N797   1.157       .  T
C796        N798   1.156       .  T
C799        C800   1.401       .  A
C799        C804   1.410       .  A
C800        C801   1.399       .  A
C800        H805   1.085       .  S
C801        C802   1.412       .  A
C801        C808   1.445       .  S
C802        C803   1.403       .  A
C803        C804   1.402       .  A
C803       H2030   1.085       .  S
C804       C2031   1.444       .  S
H806       C2027   1.085       .  S
C807       C2028   1.444       .  S
C807        N809   1.157       .  T
C808        N810   1.157       .  T
C811        C812   1.404       .  A
C811       C2040   1.412       .  A
C812        C813   1.403       .  A
C812        H817   1.085       .  S
C813        C814   1.411       .  A
C813        C820   1.442       .  S
C814       C2039   1.401       .  A
C815       C2038   1.401   1_455  A
C815        C816   1.399       .  A
C815        H818   1.085       .  S
C816       C2035   1.412   1_455  A
C816        C819   1.444       .  S
C819        N821   1.157       .  T
C820        N822   1.156       .  T
C823        C824   1.404       .  A
C824        C825   1.402       .  A
C824        H829   1.085       .  S
C825        C826   1.411       .  A
C825        C832   1.444       .  S
C827        C828   1.398       .  A
C827        H830   1.085       .  S
C828        C831   1.444       .  S
C831        N833   1.157       .  T
C832        N834   1.157       .  T
C835        C836   1.405       .  A
C835        C840   1.415       .  A
C836        C837   1.393       .  A
C836        H841   1.085       .  S
C837        C838   1.410       .  A
C837        C844   1.445       .  S
C838        C839   1.405       .  A
C839        C840   1.406       .  A
C843        N845   1.157       .  T
C844        N846   1.157       .  T
C847        C848   1.405   1_565  A
C847        C852   1.413       .  A
C848        C849   1.404       .  A
C849        C850   1.410   1_545  A
C850        C851   1.399       .  A
C851        C852   1.395       .  A
C851        H854   1.085       .  S
C852        C855   1.445       .  S
C855        N857   1.157       .  T
C856        N858   1.156       .  T
C859        C860   1.404       .  A
C859        C864   1.410       .  A
C860        C861   1.396       .  A
C860        H865   1.085       .  S
C861        C862   1.415       .  A
C861        C868   1.445       .  S
C862        C863   1.403       .  A
C863        C864   1.404       .  A
C863        H866   1.079   1_565  S
C864        C867   1.440   1_565  S
C867        N869   1.156       .  T
C868        N870   1.157       .  T
C871       C1178   1.400       .  A
C871        C876   1.410       .  A
C872       C1177   1.400   1_554  A
C872        C873   1.398       .  A
C872        H877   1.081       .  S
C873       C1180   1.409   1_554  A
C873        C880   1.444       .  S
C874       C1179   1.409       .  A
C874        C875   1.403       .  A
C875        C876   1.402       .  A
C875        H878   1.085       .  S
C876        C879   1.443       .  S
C879        N881   1.157       .  T
C880        N882   1.157       .  T
C883        C884   1.403       .  A
C883       C1194   1.415       .  A
C884        C885   1.404       .  A
C884        H889   1.079       .  S
C885        C886   1.412       .  A
C885        C892   1.441       .  S
C886       C1193   1.405       .  A
C887       C1192   1.405       .  A
C887        C888   1.400       .  A
C887        H890   1.085       .  S
C888       C1189   1.415       .  A
C888        C891   1.445       .  S
C891        N893   1.157       .  T
C892        N894   1.156       .  T
C895       C1202   1.403   1_554  A
C895        C900   1.410       .  A
C896       C1201   1.403       .  A
C896        C897   1.402       .  A
C896        H901   1.085       .  S
C897       C1204   1.410       .  A
C897        C904   1.442       .  S
C898       C1203   1.410   1_554  A
C898        C899   1.402       .  A
C899        C900   1.395       .  A
C899        H902   1.085       .  S
C900        C903   1.445       .  S
C903        N905   1.157       .  T
C904        N906   1.156       .  T
C907        C908   1.402       .  A
C907       C1218   1.408       .  A
C908        C909   1.401       .  A
C908        H913   1.083       .  S
C909        C910   1.409       .  A
C909        C916   1.444       .  S
C910       C1217   1.402       .  A
C911       C1216   1.402       .  A
C911        C912   1.397       .  A
C911        H914   1.085       .  S
C912       C1213   1.408   1_554  A
C912        C915   1.443       .  S
C915        N917   1.156       .  T
C916        N918   1.157       .  T
C919        C920   1.412       .  A
C919       C1038   1.483       .  S
C920        C921   1.399       .  A
C920        H925   1.083       .  S
C921       C1213   1.473       .  S
C922        C923   1.397       .  A
C922        H926   1.085       .  S
C923        C924   1.402       .  A
C923       C1204   1.477       .  S
C924        H927   1.083       .  S
C928        C929   1.410   1_554  A
C928        C933   1.416       .  A
C928       C1039   1.486       .  S
C929        C930   1.396   1_556  A
C929        H934   1.084       .  S
C930        C931   1.395       .  A
C930       C1216   1.473       .  S
C931        C932   1.400       .  A
C931        H935   1.084       .  S
C932        C933   1.409       .  A
C932       C1189   1.492       .  S
C933        H936   1.083       .  S
C937        C938   1.413       .  A
C937        C942   1.411   1_554  A
C937       C1069   1.486       .  S
C938        C939   1.408       .  A
C938        H943   1.083       .  S
C939        C940   1.401       .  A
C939       C1192   1.490       .  S
C940        C941   1.396   1_554  A
C940        H944   1.085       .  S
C941        C942   1.399       .  A
C941       C1177   1.475       .  S
C942        H945   1.084       .  S
C946        C947   1.410       .  A
C947        C948   1.399       .  A
C947        H952   1.084       .  S
C948        C949   1.399       .  A
C948       C1201   1.476       .  S
C949        H953   1.085       .  S
C950        C951   1.400       .  A
C950       C1180   1.475       .  S
C951        H954   1.083       .  S
C955        C956   1.414       .  A
C955        C960   1.413       .  A
C955       C1041   1.486       .  S
C956        C957   1.405       .  A
C956        H961   1.083       .  S
C957        C958   1.397       .  A
C957       C1165   1.487       .  S
C958        C959   1.397       .  A
C958        H962   1.085       .  S
C959        C960   1.400       .  A
C959       C1153   1.481       .  S
C960        H963   1.083       .  S
C964        C965   1.414       .  A
C964        C969   1.415       .  A
C964       C1076   1.488       .  S
C965        C966   1.405       .  A
C965        H970   1.083       .  S
C966        C967   1.397       .  A
C966       C1168   1.489       .  S
C967        C968   1.401       .  A
C967        H971   1.084       .  S
C968        C969   1.403       .  A
C968       C1141   1.493       .  S
C969        H972   1.081       .  S
C973        C974   1.412       .  A
C973        C978   1.410       .  A
C973       C1075   1.481       .  S
C974        C975   1.400       .  A
C974        H979   1.083       .  S
C975        C976   1.400       .  A
C975       C1144   1.483       .  S
C976        C977   1.398       .  A
C976        H980   1.085       .  S
C977        C978   1.399       .  A
C977       C1129   1.477       .  S
C978        H981   1.084       .  S
C982        C983   1.410       .  A
C982        C987   1.411       .  A
C982       C1040   1.480       .  S
C983        C984   1.398       .  A
C983        H988   1.084       .  S
C984        C985   1.398       .  A
C984       C1156   1.476       .  S
C985        C986   1.398       .  A
C985        H989   1.085       .  S
C986        C987   1.401       .  A
C986       C1132   1.477       .  S
C987        H990   1.083       .  S
C991        C992   1.415       .  A
C991        C996   1.413       .  A
C991       C1072   1.488       .  S
C992        C993   1.403       .  A
C992        H997   1.083       .  S
C993        C994   1.398       .  A
C993       C1117   1.481       .  S
C994        C995   1.395       .  A
C994        H998   1.085       .  S
C995        C996   1.402       .  A
C995       C1105   1.476       .  S
C996        H999   1.083       .  S
C1000      C1001   1.412       .  A
C1000      C1005   1.411       .  A
C1000      C1073   1.484       .  S
C1001      C1002   1.401       .  A
C1001      H1006   1.083       .  S
C1002      C1003   1.397       .  A
C1002      C1120   1.480       .  S
C1003      C1004   1.400       .  A
C1003      H1007   1.085       .  S
C1004      C1005   1.401       .  A
C1004      C1093   1.480       .  S
C1005      H1008   1.083       .  S
C1009      C1010   1.415       .  A
C1009      C1014   1.412       .  A
C1009      C1071   1.488       .  S
C1010      C1011   1.404       .  A
C1010      H1015   1.083       .  S
C1011      C1012   1.395       .  A
C1011      C1108   1.478       .  S
C1012      C1013   1.394       .  A
C1012      H1016   1.085       .  S
C1013      C1014   1.400       .  A
C1013      C1084   1.475       .  S
C1014      H1017   1.083       .  S
C1018      C1019   1.415       .  A
C1018      C1023   1.413       .  A
C1018      C1074   1.488       .  S
C1019      C1020   1.405       .  A
C1019      H1024   1.083       .  S
C1020      C1021   1.398       .  A
C1020      C1096   1.486       .  S
C1021      C1022   1.395       .  A
C1021      H1025   1.085       .  S
C1022      C1023   1.401       .  A
C1022      C1081   1.478       .  S
C1023      H1026   1.083       .  S
O1027     Zr1063   2.434       .  S
O1027      C1038   1.292       .  A
O1028     Zr1062   2.442       .  S
O1028      C1039   1.294   1_556  A
O1029      C1040   1.292       .  A
O1030     Zr1035   2.442       .  S
O1030      C1041   1.294       .  A
O1031     Zr1065   2.437       .  S
O1031      C1041   1.293       .  A
O1032     Zr1064   2.431       .  S
O1032      C1040   1.292       .  A
O1033      C1039   1.293   1_556  A
O1034     Zr1035   2.440       .  S
O1034      C1038   1.293       .  A
Zr1035     O1045   2.340       .  S
O1036     Zr1062   2.342       .  S
O1037     Zr1064   2.339       .  S
H1042      O1043   0.966       .  S
H1044      O1045   0.966       .  S
O1045     Zr1063   2.341       .  S
O1045     Zr1065   2.342       .  S
O1046     Zr2286   2.438   1_454  S
O1046      C1069   1.293       .  A
O1047     Zr2287   2.430   1_455  S
O1047      C1070   1.291       .  A
O1048      C1071   1.293       .  A
O1049      C1072   1.295       .  A
O1050     Zr1065   2.440       .  S
O1050      C1073   1.293       .  A
O1051     Zr1064   2.440       .  S
O1051      C1074   1.293       .  A
O1052      C1075   1.293       .  A
O1053     Zr1066   2.448       .  S
O1053      C1076   1.294       .  A
O1054     Zr2288   2.431   1_455  S
O1054      C1075   1.292       .  A
O1055     Zr2289   2.434   1_455  S
O1055      C1076   1.292       .  A
O1056      C1071   1.294       .  A
O1057      C1074   1.294       .  A
O1058     Zr1063   2.435       .  S
O1058      C1073   1.292       .  A
O1059     Zr1062   2.438       .  S
O1059      C1072   1.293       .  A
O1060      C1069   1.294       .  A
O1061     Zr1066   2.438       .  S
O1061      C1070   1.293       .  A
Zr1062     O2270   2.438   1_556  S
Zr1062     O1986   2.337   1_556  S
Zr1062     O2304   2.346       .  S
Zr1063     O2271   2.430       .  S
Zr1063     O2291   2.334       .  S
Zr1063     O1996   2.340   1_556  S
Zr1064     O2278   2.431       .  S
Zr1064     O1680   2.337   1_565  S
Zr1064     O2302   2.341       .  S
Zr1065     O2279   2.434       .  S
Zr1065     O2291   2.334       .  S
Zr1065     O1692   2.344   1_565  S
Zr1066     O1067   2.332       .  S
O1067     Zr2287   2.334   1_455  S
O1067     Zr2289   2.334   1_455  S
O1068     Zr1980   2.337   1_455  S
O1068     Zr1676   2.337   1_455  S
H1077      O1078   0.966       .  S
O1078     Zr1981   2.340   1_455  S
O1078     Zr2288   2.341   1_455  S
H1079      O1080   0.966       .  S
O1080     Zr2286   2.346   1_455  S
O1080     Zr1677   2.344   1_455  S
C1081      C2306   1.403       .  A
C1081      C1086   1.411       .  A
C1082      C2305   1.403   1_455  A
C1082      C1083   1.403       .  A
C1082      H1087   1.082       .  S
C1083      C2308   1.410   1_455  A
C1083      C1090   1.444       .  S
C1084      C2307   1.410       .  A
C1084      C1085   1.401       .  A
C1085      C1086   1.396       .  A
C1085      H1088   1.085       .  S
C1086      C1089   1.444       .  S
C1089      N1091   1.157       .  T
C1090      N1092   1.157       .  T
C1093      C1094   1.404       .  A
C1093      C1098   1.411       .  A
C1094      C1095   1.405       .  A
C1094      H1099   1.085       .  S
C1095      C1096   1.413       .  A
C1095      C1102   1.442       .  S
C1096      C1097   1.405       .  A
C1097      C1098   1.396       .  A
C1097      H1100   1.085       .  S
C1098      C1101   1.445       .  S
C1101      N1103   1.157       .  T
C1102      N1104   1.156       .  T
C1105      C1106   1.401       .  A
C1105      C1110   1.410       .  A
C1106      C1107   1.399       .  A
C1106      H1111   1.085       .  S
C1107      C1108   1.412       .  A
C1107      C1114   1.445       .  S
C1108      C1109   1.403       .  A
C1109      C1110   1.402       .  A
C1109      H2336   1.085       .  S
C1110      C2337   1.444       .  S
H1112      C2333   1.085       .  S
C1113      C2334   1.444       .  S
C1113      N1115   1.157       .  T
C1114      N1116   1.157       .  T
C1117      C1118   1.404       .  A
C1117      C2346   1.412       .  A
C1118      C1119   1.403       .  A
C1118      H1123   1.085       .  S
C1119      C1120   1.411       .  A
C1119      C1126   1.442       .  S
C1120      C2345   1.401       .  A
C1121      C2344   1.401   1_455  A
C1121      C1122   1.399       .  A
C1121      H1124   1.085       .  S
C1122      C2341   1.412   1_455  A
C1122      C1125   1.444       .  S
C1125      N1127   1.157       .  T
C1126      N1128   1.156       .  T
C1129      C1130   1.404       .  A
C1130      C1131   1.402       .  A
C1130      H1135   1.085       .  S
C1131      C1132   1.411       .  A
C1131      C1138   1.444       .  S
C1133      C1134   1.398       .  A
C1133      H1136   1.085       .  S
C1134      C1137   1.444       .  S
C1137      N1139   1.157       .  T
C1138      N1140   1.157       .  T
C1141      C1142   1.405       .  A
C1141      C1146   1.415       .  A
C1142      C1143   1.393       .  A
C1142      H1147   1.085       .  S
C1143      C1144   1.410       .  A
C1143      C1150   1.445       .  S
C1144      C1145   1.405       .  A
C1145      C1146   1.406       .  A
C1149      N1151   1.157       .  T
C1150      N1152   1.157       .  T
C1153      C1154   1.405   1_565  A
C1153      C1158   1.413       .  A
C1154      C1155   1.404       .  A
C1155      C1156   1.410   1_545  A
C1156      C1157   1.399       .  A
C1157      C1158   1.395       .  A
C1157      H1160   1.085       .  S
C1158      C1161   1.445       .  S
C1161      N1163   1.157       .  T
C1162      N1164   1.156       .  T
C1165      C1166   1.404       .  A
C1165      C1170   1.410       .  A
C1166      C1167   1.396       .  A
C1166      H1171   1.085       .  S
C1167      C1168   1.415       .  A
C1167      C1174   1.445       .  S
C1168      C1169   1.403       .  A
C1169      C1170   1.404       .  A
C1169      H1172   1.079   1_565  S
C1170      C1173   1.440   1_565  S
C1173      N1175   1.156       .  T
C1174      N1176   1.157       .  T
C1177      C1182   1.410       .  A
C1178      C1179   1.398       .  A
C1178      H1183   1.081       .  S
C1179      C1186   1.444       .  S
C1180      C1181   1.403       .  A
C1181      C1182   1.402       .  A
C1181      H1184   1.085       .  S
C1182      C1185   1.443       .  S
C1185      N1187   1.157       .  T
C1186      N1188   1.157       .  T
C1189      C1190   1.403   1_554  A
C1190      C1191   1.404       .  A
C1190      H1195   1.079       .  S
C1191      C1192   1.411   1_556  A
C1191      C1198   1.440       .  S
C1193      C1194   1.400       .  A
C1193      H1196   1.085       .  S
C1194      C1197   1.445       .  S
C1197      N1199   1.157       .  T
C1198      N1200   1.156       .  T
C1201      C1206   1.410       .  A
C1202      C1203   1.402       .  A
C1202      H1207   1.085       .  S
C1203      C1210   1.442       .  S
C1204      C1205   1.402       .  A
C1205      C1206   1.395       .  A
C1205      H1208   1.085       .  S
C1206      C1209   1.445       .  S
C1209      N1211   1.157       .  T
C1210      N1212   1.156       .  T
C1213      C1214   1.402       .  A
C1214      C1215   1.401       .  A
C1214      H1219   1.083       .  S
C1215      C1216   1.409   1_556  A
C1215      C1222   1.444       .  S
C1217      C1218   1.397       .  A
C1217      H1220   1.085       .  S
C1218      C1221   1.443       .  S
C1221      N1223   1.156       .  T
C1222      N1224   1.157       .  T
C1225      C1226   1.412       .  A
C1225      C1536   1.412       .  A
C1225      C1344   1.484       .  S
C1226      C1227   1.400       .  A
C1226      H1231   1.083       .  S
C1227      C1534   1.394       .  A
C1227      C1519   1.473       .  S
C1228      C1533   1.394       .  A
C1228      C1229   1.397   1_556  A
C1228      H1232   1.085       .  S
C1229      C1230   1.402       .  A
C1229      C1510   1.477       .  S
C1230      C1531   1.412   1_554  A
C1230      H1233   1.083       .  S
C1234      C1235   1.410       .  A
C1234      C1239   1.416       .  A
C1234      C1345   1.486       .  S
C1235      C1236   1.396       .  A
C1235      H1240   1.084       .  S
C1236      C1237   1.395       .  A
C1236      C1522   1.473       .  S
C1237      C1238   1.400       .  A
C1237      H1241   1.084       .  S
C1238      C1239   1.409       .  A
C1238      C1495   1.492       .  S
C1239      H1242   1.083       .  S
C1243      C1244   1.413       .  A
C1243      C1248   1.411       .  A
C1243      C1375   1.486       .  S
C1244      C1245   1.408       .  A
C1244      H1249   1.083       .  S
C1245      C1246   1.401       .  A
C1245      C1498   1.490       .  S
C1246      C1247   1.396       .  A
C1246      H1250   1.085       .  S
C1247      C1248   1.399       .  A
C1247      C1483   1.475       .  S
C1248      H1251   1.084       .  S
C1252      C1253   1.410       .  A
C1252      C1563   1.411       .  A
C1252      C1682   1.481       .  S
C1253      C1254   1.399       .  A
C1253      H1258   1.084   1_556  S
C1254      C1255   1.399       .  A
C1254      C1507   1.476   1_556  S
C1255      C1562   1.396       .  A
C1255      H1259   1.085       .  S
C1256      C1561   1.396       .  A
C1256      C1257   1.400       .  A
C1256      C1486   1.475       .  S
C1257      C1558   1.412       .  A
C1257      H1260   1.083       .  S
C1261      C1262   1.414       .  A
C1261      C1266   1.413       .  A
C1261      C1347   1.486       .  S
C1262      C1263   1.405       .  A
C1262      H1267   1.083       .  S
C1263      C1264   1.397       .  A
C1263      C1471   1.487       .  S
C1264      C1265   1.397       .  A
C1264      H1268   1.085       .  S
C1265      C1266   1.400       .  A
C1265      C1459   1.481       .  S
C1266      H1269   1.083       .  S
C1270      C1271   1.414       .  A
C1270      C1275   1.415       .  A
C1270      C1382   1.488       .  S
C1271      C1272   1.405       .  A
C1271      H1276   1.083       .  S
C1272      C1273   1.397       .  A
C1272      C1474   1.489       .  S
C1273      C1274   1.400       .  A
C1273      H1277   1.084       .  S
C1274      C1275   1.403       .  A
C1274      C1447   1.493       .  S
C1275      H1278   1.081       .  S
C1279      C1280   1.412       .  A
C1279      C1284   1.410       .  A
C1279      C1381   1.481       .  S
C1280      C1281   1.400       .  A
C1280      H1285   1.083       .  S
C1281      C1282   1.400       .  A
C1281      C1450   1.483       .  S
C1282      C1283   1.398       .  A
C1282      H1286   1.085       .  S
C1283      C1284   1.399       .  A
C1283      C1435   1.477       .  S
C1284      H1287   1.084       .  S
C1288      C1289   1.410       .  A
C1288      C1293   1.411       .  A
C1288      C1346   1.480       .  S
C1289      C1290   1.398       .  A
C1289      H1294   1.084       .  S
C1290      C1291   1.398       .  A
C1290      C1462   1.476       .  S
C1291      C1292   1.398       .  A
C1291      H1295   1.085       .  S
C1292      C1293   1.401       .  A
C1292      C1438   1.477       .  S
C1293      H1296   1.083       .  S
C1297      C1298   1.415       .  A
C1297      C1302   1.413       .  A
C1297      C1378   1.488       .  S
C1298      C1299   1.403       .  A
C1298      H1303   1.083       .  S
C1299      C1300   1.398       .  A
C1299      C1423   1.481       .  S
C1300      C1301   1.395       .  A
C1300      H1304   1.085       .  S
C1301      C1302   1.402       .  A
C1301      C1411   1.476       .  S
C1302      H1305   1.083       .  S
C1306      C1307   1.412       .  A
C1306      C1311   1.411       .  A
C1306      C1379   1.484       .  S
C1307      C1308   1.401       .  A
C1307      H1312   1.083       .  S
C1308      C1309   1.397       .  A
C1308      C1426   1.480       .  S
C1309      C1310   1.400       .  A
C1309      H1313   1.085       .  S
C1310      C1311   1.401       .  A
C1310      C1399   1.480       .  S
C1311      H1314   1.083       .  S
C1315      C1316   1.415       .  A
C1315      C1320   1.412       .  A
C1315      C1377   1.488       .  S
C1316      C1317   1.404       .  A
C1316      H1321   1.083       .  S
C1317      C1318   1.395       .  A
C1317      C1414   1.478       .  S
C1318      C1319   1.394       .  A
C1318      H1322   1.085       .  S
C1319      C1320   1.400       .  A
C1319      C1390   1.475       .  S
C1320      H1323   1.083       .  S
C1324      C1325   1.415       .  A
C1324      C1329   1.413       .  A
C1324      C1380   1.488       .  S
C1325      C1326   1.405       .  A
C1325      H1330   1.083       .  S
C1326      C1327   1.398       .  A
C1326      C1402   1.486       .  S
C1327      C1328   1.395       .  A
C1327      H1331   1.085       .  S
C1328      C1329   1.401       .  A
C1328      C1387   1.478       .  S
C1329      H1332   1.083       .  S
O1333     Zr1369   2.434       .  S
O1333      C1344   1.292       .  A
O1334     Zr1368   2.443       .  S
O1334      C1345   1.294       .  A
O1335     Zr1647   2.436   1_554  S
O1335      C1346   1.292       .  A
O1336     Zr1341   2.442       .  S
O1336      C1347   1.294       .  A
O1337     Zr1371   2.437       .  S
O1337      C1347   1.293       .  A
O1338     Zr1370   2.431       .  S
O1338      C1346   1.292       .  A
O1339     Zr1953   2.441   1_545  S
O1339      C1345   1.293       .  A
O1340     Zr1341   2.440       .  S
O1340      C1344   1.293       .  A
Zr1341     O1641   2.436       .  S
Zr1341     O1951   2.441       .  S
Zr1341     O1954   2.344       .  S
Zr1341     O1649   2.343       .  S
Zr1341     O1351   2.340       .  S
Zr1341     O2267   2.342       .  S
O1342     Zr1953   2.344   1_545  S
O1342     Zr1368   2.342       .  S
O1342     Zr1983   2.341   1_545  S
O1343     Zr1647   2.343   1_554  S
O1343     Zr1675   2.335   1_554  S
O1343     Zr1370   2.339       .  S
H1348      O1349   0.966       .  S
O1349     Zr2259   2.342   1_544  S
O1349     Zr1674   2.339   1_554  S
O1349     Zr1982   2.340   1_545  S
H1350      O1351   0.966       .  S
O1351     Zr1369   2.341       .  S
O1351     Zr1371   2.342       .  S
O1352      C1375   1.293       .  A
O1353      C1376   1.291       .  A
O1354     Zr1982   2.442   1_545  S
O1354      C1377   1.293       .  A
O1355     Zr1983   2.448   1_545  S
O1355      C1378   1.295       .  A
O1356     Zr1371   2.440       .  S
O1356      C1379   1.293       .  A
O1357     Zr1370   2.441       .  S
O1357      C1380   1.293       .  A
O1358     Zr1678   2.437   1_554  S
O1358      C1381   1.293       .  A
O1359     Zr1372   2.448       .  S
O1359      C1382   1.294       .  A
O1360      C1381   1.292       .  A
O1361      C1382   1.292       .  A
O1362     Zr1674   2.442   1_554  S
O1362      C1377   1.294       .  A
O1363     Zr1675   2.444   1_554  S
O1363      C1380   1.294       .  A
O1364     Zr1369   2.435       .  S
O1364      C1379   1.292       .  A
O1365     Zr1368   2.438       .  S
O1365      C1378   1.293       .  A
O1366     Zr1984   2.446   1_545  S
O1366      C1375   1.294       .  A
O1367     Zr1372   2.438       .  S
O1367      C1376   1.293       .  A
Zr1368     O1668   2.442       .  S
Zr1368     O1655   2.339       .  S
Zr1369     O1669   2.444       .  S
Zr1369     O1649   2.335       .  S
Zr1370     O1966   2.442       .  S
Zr1370     O1961   2.340       .  S
Zr1371     O1967   2.448       .  S
Zr1371     O1954   2.341       .  S
Zr1372     O1664   2.437       .  S
Zr1372     O1978   2.446       .  S
Zr1372     O1373   2.332       .  S
Zr1372     O2292   2.338       .  S
Zr1372     O1998   2.344       .  S
Zr1372     O1690   2.346       .  S
O1374     Zr2290   2.338   1_544  S
C1376      C1558   1.481       .  S
H1383      O1384   0.966       .  S
O1384     Zr1678   2.347   1_554  S
H1385      O1386   0.966       .  S
O1386     Zr1984   2.344   1_545  S
C1387      C1392   1.411       .  A
C1388      C1389   1.403       .  A
C1388      H1393   1.082       .  S
C1389      C1396   1.444       .  S
C1390      C1391   1.401       .  A
C1391      C1392   1.396       .  A
C1391      H1394   1.085       .  S
C1392      C1395   1.444       .  S
C1395      N1397   1.157       .  T
C1396      N1398   1.157       .  T
C1399      C1400   1.404   1_655  A
C1399      C1404   1.411       .  A
C1400      C1401   1.405       .  A
C1400      H1405   1.085       .  S
C1401      C1402   1.413   1_455  A
C1401      C1408   1.442       .  S
C1402      C1403   1.405       .  A
C1403      C1404   1.396       .  A
C1403      H1406   1.085       .  S
C1404      C1407   1.445       .  S
C1407      N1409   1.157       .  T
C1408      N1410   1.156       .  T
C1411      C1412   1.401       .  A
C1411      C1416   1.410   1_655  A
C1412      C1413   1.399       .  A
C1412      H1417   1.085       .  S
C1413      C1414   1.412       .  A
C1413      C1420   1.445       .  S
C1414      C1415   1.403   1_655  A
C1415      C1416   1.402       .  A
C1419      N1421   1.157       .  T
C1420      N1422   1.157       .  T
C1423      C1424   1.404       .  A
C1424      C1425   1.403       .  A
C1424      H1429   1.085       .  S
C1425      C1426   1.411       .  A
C1425      C1432   1.442       .  S
C1427      C1428   1.399       .  A
C1427      H1430   1.085       .  S
C1428      C1431   1.444       .  S
C1431      N1433   1.157       .  T
C1432      N1434   1.156       .  T
C1435      C1436   1.404       .  A
C1435      C2052   1.409       .  A
C1436      C1437   1.402       .  A
C1436      H1441   1.085       .  S
C1437      C1438   1.411       .  A
C1437      C1444   1.444       .  S
C1438      C2051   1.403       .  A
C1439      C2050   1.403   1_545  A
C1439      C1440   1.398       .  A
C1439      H1442   1.085       .  S
C1440      C2047   1.409   1_545  A
C1440      C1443   1.444       .  S
C1443      N1445   1.157       .  T
C1444      N1446   1.157       .  T
C1447      C1448   1.405       .  A
C1447      C1452   1.415       .  A
C1448      C1449   1.393       .  A
C1448      H1453   1.085       .  S
C1449      C1450   1.410       .  A
C1449      C1456   1.445       .  S
C1450      C1451   1.405       .  A
C1451      C1452   1.406       .  A
C1451      H2066   1.085       .  S
C1452      C2067   1.441       .  S
H1454      C2063   1.085   1_545  S
C1455      C2064   1.441   1_545  S
C1455      N1457   1.157       .  T
C1456      N1458   1.157       .  T
C1459      C1460   1.405       .  A
C1459      C1464   1.413       .  A
C1460      C1461   1.404       .  A
C1460      H2077   1.084       .  S
C1461      C1462   1.410       .  A
C1461      C2080   1.442       .  S
C1462      C1463   1.399       .  A
C1463      C1464   1.395       .  A
C1463      H1466   1.085       .  S
C1464      C1467   1.445       .  S
H1465      C2072   1.084       .  S
C1467      N1469   1.157       .  T
C1468      C2073   1.442       .  S
C1468      N1470   1.156       .  T
C1471      C1472   1.404       .  A
C1471      C1476   1.410       .  A
C1472      C1473   1.396       .  A
C1472      H1477   1.085       .  S
C1473      C1474   1.415       .  A
C1473      C1480   1.445       .  S
C1474      C1475   1.403       .  A
C1475      C1476   1.404       .  A
C1475      H1478   1.079       .  S
C1476      C1479   1.440       .  S
C1479      N1481   1.156       .  T
C1480      N1482   1.157       .  T
C1483      C1790   1.400       .  A
C1483      C1488   1.410       .  A
C1484      C1789   1.400   1_554  A
C1484      C1485   1.398       .  A
C1484      H1489   1.081       .  S
C1485      C1792   1.409   1_554  A
C1485      C1492   1.444       .  S
C1486      C1791   1.409       .  A
C1486      C1487   1.403       .  A
C1487      C1488   1.402       .  A
C1487      H1490   1.085       .  S
C1488      C1491   1.443       .  S
C1491      N1493   1.157       .  T
C1492      N1494   1.157       .  T
C1495      C1496   1.403       .  A
C1495      C1806   1.415       .  A
C1496      C1497   1.404       .  A
C1496      H1501   1.079       .  S
C1497      C1498   1.412       .  A
C1497      C1504   1.441       .  S
C1498      C1805   1.405       .  A
C1499      C1804   1.405       .  A
C1499      C1500   1.400       .  A
C1499      H1502   1.085       .  S
C1500      C1801   1.415       .  A
C1500      C1503   1.445       .  S
C1503      N1505   1.157       .  T
C1504      N1506   1.156       .  T
C1507      C1814   1.403   1_554  A
C1507      C1512   1.410       .  A
C1508      C1813   1.403       .  A
C1508      C1509   1.402       .  A
C1508      H1513   1.085       .  S
C1509      C1816   1.410       .  A
C1509      C1516   1.442       .  S
C1510      C1815   1.410   1_554  A
C1510      C1511   1.402       .  A
C1511      C1512   1.395       .  A
C1511      H1514   1.085       .  S
C1512      C1515   1.445       .  S
C1515      N1517   1.157       .  T
C1516      N1518   1.156       .  T
C1519      C1520   1.402       .  A
C1519      C1830   1.408       .  A
C1520      C1521   1.401       .  A
C1520      H1525   1.083       .  S
C1521      C1522   1.409       .  A
C1521      C1528   1.444       .  S
C1522      C1829   1.402       .  A
C1523      C1828   1.402       .  A
C1523      C1524   1.397       .  A
C1523      H1526   1.085       .  S
C1524      C1825   1.408   1_554  A
C1524      C1527   1.443       .  S
C1527      N1529   1.156       .  T
C1528      N1530   1.157       .  T
C1531      C1532   1.412       .  A
C1531      C1650   1.483       .  S
C1532      C1533   1.399       .  A
C1532      H1537   1.083       .  S
C1533      C1825   1.473       .  S
C1534      C1535   1.397       .  A
C1534      H1538   1.085       .  S
C1535      C1536   1.402       .  A
C1535      C1816   1.477       .  S
C1536      H1539   1.083       .  S
C1540      C1541   1.410   1_554  A
C1540      C1545   1.416       .  A
C1540      C1651   1.486       .  S
C1541      C1542   1.396   1_556  A
C1541      H1546   1.084       .  S
C1542      C1543   1.395       .  A
C1542      C1828   1.473       .  S
C1543      C1544   1.400       .  A
C1543      H1547   1.084       .  S
C1544      C1545   1.409       .  A
C1544      C1801   1.492       .  S
C1545      H1548   1.083       .  S
C1549      C1550   1.413       .  A
C1549      C1554   1.411   1_554  A
C1549      C1681   1.486       .  S
C1550      C1551   1.408       .  A
C1550      H1555   1.083       .  S
C1551      C1552   1.401       .  A
C1551      C1804   1.490       .  S
C1552      C1553   1.396   1_554  A
C1552      H1556   1.085       .  S
C1553      C1554   1.399       .  A
C1553      C1789   1.475       .  S
C1554      H1557   1.084       .  S
C1558      C1559   1.410       .  A
C1559      C1560   1.399       .  A
C1559      H1564   1.084       .  S
C1560      C1561   1.399       .  A
C1560      C1813   1.476       .  S
C1561      H1565   1.085       .  S
C1562      C1563   1.400       .  A
C1562      C1792   1.475       .  S
C1563      H1566   1.083       .  S
C1567      C1568   1.414       .  A
C1567      C1572   1.413       .  A
C1567      C1653   1.486       .  S
C1568      C1569   1.405       .  A
C1568      H1573   1.083       .  S
C1569      C1570   1.397       .  A
C1569      C1777   1.487       .  S
C1570      C1571   1.397       .  A
C1570      H1574   1.085       .  S
C1571      C1572   1.400       .  A
C1571      C1765   1.481       .  S
C1572      H1575   1.083       .  S
C1576      C1577   1.414       .  A
C1576      C1581   1.415       .  A
C1576      C1688   1.488       .  S
C1577      C1578   1.405       .  A
C1577      H1582   1.083       .  S
C1578      C1579   1.397       .  A
C1578      C1780   1.489       .  S
C1579      C1580   1.401       .  A
C1579      H1583   1.084       .  S
C1580      C1581   1.403       .  A
C1580      C1753   1.493       .  S
C1581      H1584   1.081       .  S
C1585      C1586   1.412       .  A
C1585      C1590   1.410       .  A
C1585      C1687   1.481       .  S
C1586      C1587   1.400       .  A
C1586      H1591   1.083       .  S
C1587      C1588   1.400       .  A
C1587      C1756   1.483       .  S
C1588      C1589   1.398       .  A
C1588      H1592   1.085       .  S
C1589      C1590   1.399       .  A
C1589      C1741   1.477       .  S
C1590      H1593   1.084       .  S
C1594      C1595   1.410       .  A
C1594      C1599   1.411       .  A
C1594      C1652   1.480       .  S
C1595      C1596   1.398       .  A
C1595      H1600   1.084       .  S
C1596      C1597   1.398       .  A
C1596      C1768   1.476       .  S
C1597      C1598   1.398       .  A
C1597      H1601   1.085       .  S
C1598      C1599   1.401       .  A
C1598      C1744   1.477       .  S
C1599      H1602   1.083       .  S
C1603      C1604   1.415       .  A
C1603      C1608   1.413       .  A
C1603      C1684   1.488       .  S
C1604      C1605   1.403       .  A
C1604      H1609   1.083       .  S
C1605      C1606   1.398       .  A
C1605      C1729   1.481       .  S
C1606      C1607   1.395       .  A
C1606      H1610   1.085       .  S
C1607      C1608   1.402       .  A
C1607      C1717   1.476       .  S
C1608      H1611   1.083       .  S
C1612      C1613   1.412       .  A
C1612      C1617   1.411       .  A
C1612      C1685   1.484       .  S
C1613      C1614   1.401       .  A
C1613      H1618   1.083       .  S
C1614      C1615   1.397       .  A
C1614      C1732   1.480       .  S
C1615      C1616   1.400       .  A
C1615      H1619   1.085       .  S
C1616      C1617   1.401       .  A
C1616      C1705   1.480       .  S
C1617      H1620   1.083       .  S
C1621      C1622   1.415       .  A
C1621      C1626   1.412       .  A
C1621      C1683   1.488       .  S
C1622      C1623   1.404       .  A
C1622      H1627   1.083       .  S
C1623      C1624   1.395       .  A
C1623      C1720   1.478       .  S
C1624      C1625   1.394       .  A
C1624      H1628   1.085       .  S
C1625      C1626   1.400       .  A
C1625      C1696   1.475       .  S
C1626      H1629   1.083       .  S
C1630      C1631   1.415       .  A
C1630      C1635   1.413       .  A
C1630      C1686   1.488       .  S
C1631      C1632   1.405       .  A
C1631      H1636   1.083       .  S
C1632      C1633   1.398       .  A
C1632      C1708   1.486       .  S
C1633      C1634   1.395       .  A
C1633      H1637   1.085       .  S
C1634      C1635   1.401       .  A
C1634      C1693   1.478       .  S
C1635      H1638   1.083       .  S
O1639     Zr1675   2.434       .  S
O1639      C1650   1.292       .  A
O1640     Zr1674   2.442       .  S
O1640      C1651   1.294   1_556  A
O1641      C1652   1.292       .  A
O1642     Zr1647   2.442       .  S
O1642      C1653   1.294       .  A
O1643     Zr1677   2.437       .  S
O1643      C1653   1.293       .  A
O1644     Zr1676   2.431       .  S
O1644      C1652   1.292       .  A
O1645     Zr2259   2.442   1_545  S
O1645      C1651   1.293   1_556  A
O1646     Zr1647   2.440       .  S
O1646      C1650   1.293       .  A
Zr1647     O2257   2.442       .  S
Zr1647     O2260   2.344       .  S
Zr1647     O1657   2.340       .  S
Zr1647     O1961   2.342   1_556  S
O1648     Zr2259   2.344   1_545  S
O1648     Zr1674   2.342       .  S
O1648     Zr2289   2.341   1_545  S
O1649     Zr1676   2.339       .  S
H1654      O1655   0.966       .  S
O1655     Zr1953   2.342   1_545  S
O1655     Zr2288   2.340   1_545  S
H1656      O1657   0.966       .  S
O1657     Zr1675   2.341       .  S
O1657     Zr1677   2.342       .  S
O1658      C1681   1.293       .  A
O1659      C1682   1.291       .  A
O1660     Zr2288   2.442   1_545  S
O1660      C1683   1.293       .  A
O1661     Zr2289   2.448   1_545  S
O1661      C1684   1.295       .  A
O1662     Zr1677   2.440       .  S
O1662      C1685   1.293       .  A
O1663     Zr1676   2.440       .  S
O1663      C1686   1.293       .  A
O1664      C1687   1.293       .  A
O1665     Zr1678   2.448       .  S
O1665      C1688   1.294       .  A
O1666      C1687   1.292       .  A
O1667      C1688   1.292       .  A
O1668      C1683   1.294       .  A
O1669      C1686   1.294       .  A
O1670     Zr1675   2.435       .  S
O1670      C1685   1.292       .  A
O1671     Zr1674   2.438       .  S
O1671      C1684   1.293       .  A
O1672     Zr2290   2.446   1_544  S
O1672      C1681   1.294       .  A
O1673     Zr1678   2.438       .  S
O1673      C1682   1.293       .  A
Zr1676     O2272   2.442       .  S
Zr1676     O2267   2.340       .  S
Zr1677     O2273   2.448       .  S
Zr1677     O2260   2.341       .  S
Zr1678     O2284   2.446   1_556  S
Zr1678     O1679   2.332       .  S
Zr1678     O1986   2.338   1_556  S
Zr1678     O2304   2.344       .  S
O1680     Zr1984   2.338   1_545  S
H1689      O1690   0.966       .  S
H1691      O1692   0.966       .  S
O1692     Zr2290   2.344   1_545  S
C1693      C1698   1.411       .  A
C1694      C1695   1.403       .  A
C1694      H1699   1.082       .  S
C1695      C1702   1.444       .  S
C1696      C1697   1.401       .  A
C1697      C1698   1.396       .  A
C1697      H1700   1.085       .  S
C1698      C1701   1.444       .  S
C1701      N1703   1.157       .  T
C1702      N1704   1.157       .  T
C1705      C1706   1.404   1_655  A
C1705      C1710   1.411       .  A
C1706      C1707   1.405       .  A
C1706      H1711   1.085       .  S
C1707      C1708   1.413   1_455  A
C1707      C1714   1.442       .  S
C1708      C1709   1.405       .  A
C1709      C1710   1.396       .  A
C1709      H1712   1.085       .  S
C1710      C1713   1.445       .  S
C1713      N1715   1.157       .  T
C1714      N1716   1.156       .  T
C1717      C1718   1.401       .  A
C1717      C1722   1.410   1_655  A
C1718      C1719   1.399       .  A
C1718      H1723   1.085       .  S
C1719      C1720   1.412       .  A
C1719      C1726   1.445       .  S
C1720      C1721   1.403   1_655  A
C1721      C1722   1.402       .  A
C1725      N1727   1.157       .  T
C1726      N1728   1.157       .  T
C1729      C1730   1.404       .  A
C1730      C1731   1.403       .  A
C1730      H1735   1.085       .  S
C1731      C1732   1.411       .  A
C1731      C1738   1.442       .  S
C1733      C1734   1.399       .  A
C1733      H1736   1.085       .  S
C1734      C1737   1.444       .  S
C1737      N1739   1.157       .  T
C1738      N1740   1.156       .  T
C1741      C1742   1.404       .  A
C1741      C2358   1.409       .  A
C1742      C1743   1.402       .  A
C1742      H1747   1.085       .  S
C1743      C1744   1.411       .  A
C1743      C1750   1.444       .  S
C1744      C2357   1.403       .  A
C1745      C2356   1.403   1_545  A
C1745      C1746   1.398       .  A
C1745      H1748   1.085       .  S
C1746      C2353   1.409   1_545  A
C1746      C1749   1.444       .  S
C1749      N1751   1.157       .  T
C1750      N1752   1.157       .  T
C1753      C1754   1.405       .  A
C1753      C1758   1.415       .  A
C1754      C1755   1.393       .  A
C1754      H1759   1.085       .  S
C1755      C1756   1.410       .  A
C1755      C1762   1.445       .  S
C1756      C1757   1.405       .  A
C1757      C1758   1.406       .  A
C1757      H2372   1.085       .  S
C1758      C2373   1.441       .  S
H1760      C2369   1.085   1_545  S
C1761      C2370   1.441   1_545  S
C1761      N1763   1.157       .  T
C1762      N1764   1.157       .  T
C1765      C1766   1.405       .  A
C1765      C1770   1.413       .  A
C1766      C1767   1.404       .  A
C1766      H2383   1.084       .  S
C1767      C1768   1.410       .  A
C1767      C2386   1.442       .  S
C1768      C1769   1.399       .  A
C1769      C1770   1.395       .  A
C1769      H1772   1.085       .  S
C1770      C1773   1.445       .  S
H1771      C2378   1.084       .  S
C1773      N1775   1.157       .  T
C1774      C2379   1.442       .  S
C1774      N1776   1.156       .  T
C1777      C1778   1.404       .  A
C1777      C1782   1.410       .  A
C1778      C1779   1.396       .  A
C1778      H1783   1.085       .  S
C1779      C1780   1.415       .  A
C1779      C1786   1.445       .  S
C1780      C1781   1.403       .  A
C1781      C1782   1.404       .  A
C1781      H1784   1.079       .  S
C1782      C1785   1.440       .  S
C1785      N1787   1.156       .  T
C1786      N1788   1.157       .  T
C1789      C1794   1.410       .  A
C1790      C1791   1.398       .  A
C1790      H1795   1.081       .  S
C1791      C1798   1.444       .  S
C1792      C1793   1.403       .  A
C1793      C1794   1.402       .  A
C1793      H1796   1.085       .  S
C1794      C1797   1.443       .  S
C1797      N1799   1.157       .  T
C1798      N1800   1.157       .  T
C1801      C1802   1.403   1_554  A
C1802      C1803   1.404       .  A
C1802      H1807   1.079       .  S
C1803      C1804   1.411   1_556  A
C1803      C1810   1.440       .  S
C1805      C1806   1.400       .  A
C1805      H1808   1.085       .  S
C1806      C1809   1.445       .  S
C1809      N1811   1.157       .  T
C1810      N1812   1.156       .  T
C1813      C1818   1.410       .  A
C1814      C1815   1.402       .  A
C1814      H1819   1.085       .  S
C1815      C1822   1.442       .  S
C1816      C1817   1.402       .  A
C1817      C1818   1.395       .  A
C1817      H1820   1.085       .  S
C1818      C1821   1.445       .  S
C1821      N1823   1.157       .  T
C1822      N1824   1.156       .  T
C1825      C1826   1.402       .  A
C1826      C1827   1.401       .  A
C1826      H1831   1.083       .  S
C1827      C1828   1.409   1_556  A
C1827      C1834   1.444       .  S
C1829      C1830   1.397       .  A
C1829      H1832   1.085       .  S
C1830      C1833   1.443       .  S
C1833      N1835   1.156       .  T
C1834      N1836   1.157       .  T
C1837      C1838   1.412       .  A
C1837      C2148   1.412       .  A
C1837      C1956   1.484       .  S
C1838      C1839   1.400       .  A
C1838      H1843   1.083       .  S
C1839      C2146   1.394       .  A
C1839      C2131   1.473       .  S
C1840      C2145   1.394       .  A
C1840      C1841   1.397   1_556  A
C1840      H1844   1.085       .  S
C1841      C1842   1.402       .  A
C1841      C2122   1.477       .  S
C1842      C2143   1.412   1_554  A
C1842      H1845   1.083       .  S
C1846      C1847   1.410       .  A
C1846      C1851   1.416       .  A
C1846      C1957   1.486       .  S
C1847      C1848   1.396       .  A
C1847      H1852   1.084       .  S
C1848      C1849   1.395       .  A
C1848      C2134   1.473       .  S
C1849      C1850   1.400       .  A
C1849      H1853   1.084       .  S
C1850      C1851   1.409       .  A
C1850      C2107   1.492       .  S
C1851      H1854   1.083       .  S
C1855      C1856   1.413       .  A
C1855      C1860   1.411       .  A
C1855      C1987   1.486       .  S
C1856      C1857   1.408       .  A
C1856      H1861   1.083       .  S
C1857      C1858   1.401       .  A
C1857      C2110   1.490       .  S
C1858      C1859   1.396       .  A
C1858      H1862   1.085       .  S
C1859      C1860   1.399       .  A
C1859      C2095   1.475       .  S
C1860      H1863   1.084       .  S
C1864      C1865   1.410       .  A
C1864      C2175   1.411       .  A
C1864      C2294   1.481       .  S
C1865      C1866   1.399       .  A
C1865      H1870   1.084   1_556  S
C1866      C1867   1.399       .  A
C1866      C2119   1.476   1_556  S
C1867      C2174   1.396       .  A
C1867      H1871   1.085       .  S
C1868      C2173   1.396       .  A
C1868      C1869   1.400       .  A
C1868      C2098   1.475       .  S
C1869      C2170   1.412       .  A
C1869      H1872   1.083       .  S
C1873      C1874   1.414       .  A
C1873      C1878   1.413       .  A
C1873      C1959   1.486       .  S
C1874      C1875   1.405       .  A
C1874      H1879   1.083       .  S
C1875      C1876   1.397       .  A
C1875      C2083   1.487       .  S
C1876      C1877   1.397       .  A
C1876      H1880   1.085       .  S
C1877      C1878   1.400       .  A
C1877      C2071   1.481       .  S
C1878      H1881   1.083       .  S
C1882      C1883   1.414       .  A
C1882      C1887   1.415       .  A
C1882      C1994   1.488       .  S
C1883      C1884   1.405       .  A
C1883      H1888   1.083       .  S
C1884      C1885   1.397       .  A
C1884      C2086   1.489       .  S
C1885      C1886   1.400       .  A
C1885      H1889   1.084       .  S
C1886      C1887   1.403       .  A
C1886      C2059   1.493       .  S
C1887      H1890   1.081       .  S
C1891      C1892   1.412       .  A
C1891      C1896   1.410       .  A
C1891      C1993   1.481       .  S
C1892      C1893   1.400       .  A
C1892      H1897   1.083       .  S
C1893      C1894   1.400       .  A
C1893      C2062   1.483       .  S
C1894      C1895   1.398       .  A
C1894      H1898   1.085       .  S
C1895      C1896   1.399       .  A
C1895      C2047   1.477       .  S
C1896      H1899   1.084       .  S
C1900      C1901   1.410       .  A
C1900      C1905   1.411       .  A
C1900      C1958   1.480       .  S
C1901      C1902   1.398       .  A
C1901      H1906   1.084       .  S
C1902      C1903   1.398       .  A
C1902      C2074   1.476       .  S
C1903      C1904   1.398       .  A
C1903      H1907   1.085       .  S
C1904      C1905   1.401       .  A
C1904      C2050   1.477       .  S
C1905      H1908   1.083       .  S
C1909      C1910   1.415       .  A
C1909      C1914   1.413       .  A
C1909      C1990   1.488       .  S
C1910      C1911   1.403       .  A
C1910      H1915   1.083       .  S
C1911      C1912   1.398       .  A
C1911      C2035   1.481       .  S
C1912      C1913   1.395       .  A
C1912      H1916   1.085       .  S
C1913      C1914   1.402       .  A
C1913      C2023   1.476       .  S
C1914      H1917   1.083       .  S
C1918      C1919   1.412       .  A
C1918      C1923   1.411       .  A
C1918      C1991   1.484       .  S
C1919      C1920   1.401       .  A
C1919      H1924   1.083       .  S
C1920      C1921   1.397       .  A
C1920      C2038   1.480       .  S
C1921      C1922   1.400       .  A
C1921      H1925   1.085       .  S
C1922      C1923   1.401       .  A
C1922      C2011   1.480       .  S
C1923      H1926   1.083       .  S
C1927      C1928   1.415       .  A
C1927      C1932   1.412       .  A
C1927      C1989   1.488       .  S
C1928      C1929   1.404       .  A
C1928      H1933   1.083       .  S
C1929      C1930   1.395       .  A
C1929      C2026   1.478       .  S
C1930      C1931   1.394       .  A
C1930      H1934   1.085       .  S
C1931      C1932   1.400       .  A
C1931      C2002   1.475       .  S
C1932      H1935   1.083       .  S
C1936      C1937   1.415       .  A
C1936      C1941   1.413       .  A
C1936      C1992   1.488       .  S
C1937      C1938   1.405       .  A
C1937      H1942   1.083       .  S
C1938      C1939   1.398       .  A
C1938      C2014   1.486       .  S
C1939      C1940   1.395       .  A
C1939      H1943   1.085       .  S
C1940      C1941   1.401       .  A
C1940      C1999   1.478       .  S
C1941      H1944   1.083       .  S
O1945     Zr1981   2.434       .  S
O1945      C1956   1.292       .  A
O1946     Zr1980   2.443       .  S
O1946      C1957   1.294       .  A
O1947     Zr2259   2.436   1_554  S
O1947      C1958   1.292       .  A
O1948     Zr1953   2.442       .  S
O1948      C1959   1.294       .  A
O1949     Zr1983   2.437       .  S
O1949      C1959   1.293       .  A
O1950     Zr1982   2.431       .  S
O1950      C1958   1.292       .  A
O1951      C1957   1.293       .  A
O1952     Zr1953   2.440       .  S
O1952      C1956   1.293       .  A
Zr1953     O2253   2.436       .  S
Zr1953     O2261   2.343       .  S
Zr1953     O1963   2.340       .  S
O1954     Zr1980   2.342       .  S
O1955     Zr2259   2.343   1_554  S
O1955     Zr2287   2.335   1_554  S
O1955     Zr1982   2.339       .  S
H1960      O1961   0.966       .  S
O1961     Zr2286   2.339   1_554  S
H1962      O1963   0.966       .  S
O1963     Zr1981   2.341       .  S
O1963     Zr1983   2.342       .  S
O1964      C1987   1.293       .  A
O1965      C1988   1.291       .  A
O1966      C1989   1.293       .  A
O1967      C1990   1.295       .  A
O1968     Zr1983   2.440       .  S
O1968      C1991   1.293       .  A
O1969     Zr1982   2.441       .  S
O1969      C1992   1.293       .  A
O1970     Zr2290   2.437   1_554  S
O1970      C1993   1.293       .  A
O1971     Zr1984   2.448       .  S
O1971      C1994   1.294       .  A
O1972      C1993   1.292       .  A
O1973      C1994   1.292       .  A
O1974     Zr2286   2.442   1_554  S
O1974      C1989   1.294       .  A
O1975     Zr2287   2.444   1_554  S
O1975      C1992   1.294       .  A
O1976     Zr1981   2.435       .  S
O1976      C1991   1.292       .  A
O1977     Zr1980   2.438       .  S
O1977      C1990   1.293       .  A
O1978      C1987   1.294       .  A
O1979     Zr1984   2.438       .  S
O1979      C1988   1.293       .  A
Zr1980     O2280   2.442       .  S
Zr1980     O2267   2.339       .  S
Zr1981     O2281   2.444       .  S
Zr1981     O2261   2.335       .  S
Zr1984     O2276   2.437       .  S
Zr1984     O1985   2.332       .  S
Zr1984     O2302   2.346       .  S
C1988      C2170   1.481       .  S
H1995      O1996   0.966       .  S
O1996     Zr2290   2.347   1_554  S
H1997      O1998   0.966       .  S
C1999      C2004   1.411       .  A
C2000      C2001   1.403       .  A
C2000      H2005   1.082       .  S
C2001      C2008   1.444       .  S
C2002      C2003   1.401       .  A
C2003      C2004   1.396       .  A
C2003      H2006   1.085       .  S
C2004      C2007   1.444       .  S
C2007      N2009   1.157       .  T
C2008      N2010   1.157       .  T
C2011      C2012   1.404   1_655  A
C2011      C2016   1.411       .  A
C2012      C2013   1.405       .  A
C2012      H2017   1.085       .  S
C2013      C2014   1.413   1_455  A
C2013      C2020   1.442       .  S
C2014      C2015   1.405       .  A
C2015      C2016   1.396       .  A
C2015      H2018   1.085       .  S
C2016      C2019   1.445       .  S
C2019      N2021   1.157       .  T
C2020      N2022   1.156       .  T
C2023      C2024   1.401       .  A
C2023      C2028   1.410   1_655  A
C2024      C2025   1.399       .  A
C2024      H2029   1.085       .  S
C2025      C2026   1.412       .  A
C2025      C2032   1.445       .  S
C2026      C2027   1.403   1_655  A
C2027      C2028   1.402       .  A
C2031      N2033   1.157       .  T
C2032      N2034   1.157       .  T
C2035      C2036   1.404       .  A
C2036      C2037   1.403       .  A
C2036      H2041   1.085       .  S
C2037      C2038   1.411       .  A
C2037      C2044   1.442       .  S
C2039      C2040   1.399       .  A
C2039      H2042   1.085       .  S
C2040      C2043   1.444       .  S
C2043      N2045   1.157       .  T
C2044      N2046   1.156       .  T
C2047      C2048   1.404       .  A
C2048      C2049   1.402       .  A
C2048      H2053   1.085       .  S
C2049      C2050   1.411       .  A
C2049      C2056   1.444       .  S
C2051      C2052   1.398       .  A
C2051      H2054   1.085       .  S
C2052      C2055   1.444       .  S
C2055      N2057   1.157       .  T
C2056      N2058   1.157       .  T
C2059      C2060   1.405       .  A
C2059      C2064   1.415       .  A
C2060      C2061   1.393       .  A
C2060      H2065   1.085       .  S
C2061      C2062   1.410       .  A
C2061      C2068   1.445       .  S
C2062      C2063   1.405       .  A
C2063      C2064   1.406       .  A
C2067      N2069   1.157       .  T
C2068      N2070   1.157       .  T
C2071      C2072   1.405   1_565  A
C2071      C2076   1.413       .  A
C2072      C2073   1.404       .  A
C2073      C2074   1.410   1_545  A
C2074      C2075   1.399       .  A
C2075      C2076   1.395       .  A
C2075      H2078   1.085       .  S
C2076      C2079   1.445       .  S
C2079      N2081   1.157       .  T
C2080      N2082   1.156       .  T
C2083      C2084   1.404       .  A
C2083      C2088   1.410       .  A
C2084      C2085   1.396       .  A
C2084      H2089   1.085       .  S
C2085      C2086   1.415       .  A
C2085      C2092   1.445       .  S
C2086      C2087   1.403       .  A
C2087      C2088   1.404       .  A
C2087      H2090   1.079   1_565  S
C2088      C2091   1.440   1_565  S
C2091      N2093   1.156       .  T
C2092      N2094   1.157       .  T
C2095      C2402   1.400       .  A
C2095      C2100   1.410       .  A
C2096      C2401   1.400   1_554  A
C2096      C2097   1.398       .  A
C2096      H2101   1.081       .  S
C2097      C2404   1.409   1_554  A
C2097      C2104   1.444       .  S
C2098      C2403   1.409       .  A
C2098      C2099   1.403       .  A
C2099      C2100   1.402       .  A
C2099      H2102   1.085       .  S
C2100      C2103   1.443       .  S
C2103      N2105   1.157       .  T
C2104      N2106   1.157       .  T
C2107      C2108   1.403       .  A
C2107      C2418   1.415       .  A
C2108      C2109   1.404       .  A
C2108      H2113   1.079       .  S
C2109      C2110   1.412       .  A
C2109      C2116   1.441       .  S
C2110      C2417   1.405       .  A
C2111      C2416   1.405       .  A
C2111      C2112   1.400       .  A
C2111      H2114   1.085       .  S
C2112      C2413   1.415       .  A
C2112      C2115   1.445       .  S
C2115      N2117   1.157       .  T
C2116      N2118   1.156       .  T
C2119      C2426   1.403   1_554  A
C2119      C2124   1.410       .  A
C2120      C2425   1.403       .  A
C2120      C2121   1.402       .  A
C2120      H2125   1.085       .  S
C2121      C2428   1.410       .  A
C2121      C2128   1.442       .  S
C2122      C2427   1.410   1_554  A
C2122      C2123   1.402       .  A
C2123      C2124   1.395       .  A
C2123      H2126   1.085       .  S
C2124      C2127   1.445       .  S
C2127      N2129   1.157       .  T
C2128      N2130   1.156       .  T
C2131      C2132   1.402       .  A
C2131      C2442   1.408       .  A
C2132      C2133   1.401       .  A
C2132      H2137   1.083       .  S
C2133      C2134   1.409       .  A
C2133      C2140   1.444       .  S
C2134      C2441   1.402       .  A
C2135      C2440   1.402       .  A
C2135      C2136   1.397       .  A
C2135      H2138   1.085       .  S
C2136      C2437   1.408   1_554  A
C2136      C2139   1.443       .  S
C2139      N2141   1.156       .  T
C2140      N2142   1.157       .  T
C2143      C2144   1.412       .  A
C2143      C2262   1.483       .  S
C2144      C2145   1.399       .  A
C2144      H2149   1.083       .  S
C2145      C2437   1.473       .  S
C2146      C2147   1.397       .  A
C2146      H2150   1.085       .  S
C2147      C2148   1.402       .  A
C2147      C2428   1.477       .  S
C2148      H2151   1.083       .  S
C2152      C2153   1.410   1_554  A
C2152      C2157   1.416       .  A
C2152      C2263   1.486       .  S
C2153      C2154   1.396   1_556  A
C2153      H2158   1.084       .  S
C2154      C2155   1.395       .  A
C2154      C2440   1.473       .  S
C2155      C2156   1.400       .  A
C2155      H2159   1.084       .  S
C2156      C2157   1.409       .  A
C2156      C2413   1.492       .  S
C2157      H2160   1.083       .  S
C2161      C2162   1.413       .  A
C2161      C2166   1.411   1_554  A
C2161      C2293   1.486       .  S
C2162      C2163   1.408       .  A
C2162      H2167   1.083       .  S
C2163      C2164   1.401       .  A
C2163      C2416   1.490       .  S
C2164      C2165   1.396   1_554  A
C2164      H2168   1.085       .  S
C2165      C2166   1.399       .  A
C2165      C2401   1.475       .  S
C2166      H2169   1.084       .  S
C2170      C2171   1.410       .  A
C2171      C2172   1.399       .  A
C2171      H2176   1.084       .  S
C2172      C2173   1.399       .  A
C2172      C2425   1.476       .  S
C2173      H2177   1.085       .  S
C2174      C2175   1.400       .  A
C2174      C2404   1.475       .  S
C2175      H2178   1.083       .  S
C2179      C2180   1.414       .  A
C2179      C2184   1.413       .  A
C2179      C2265   1.486       .  S
C2180      C2181   1.405       .  A
C2180      H2185   1.083       .  S
C2181      C2182   1.397       .  A
C2181      C2389   1.487       .  S
C2182      C2183   1.397       .  A
C2182      H2186   1.085       .  S
C2183      C2184   1.400       .  A
C2183      C2377   1.481       .  S
C2184      H2187   1.083       .  S
C2188      C2189   1.414       .  A
C2188      C2193   1.415       .  A
C2188      C2300   1.488       .  S
C2189      C2190   1.405       .  A
C2189      H2194   1.083       .  S
C2190      C2191   1.397       .  A
C2190      C2392   1.489       .  S
C2191      C2192   1.401       .  A
C2191      H2195   1.084       .  S
C2192      C2193   1.403       .  A
C2192      C2365   1.493       .  S
C2193      H2196   1.081       .  S
C2197      C2198   1.412       .  A
C2197      C2202   1.410       .  A
C2197      C2299   1.481       .  S
C2198      C2199   1.400       .  A
C2198      H2203   1.083       .  S
C2199      C2200   1.400       .  A
C2199      C2368   1.483       .  S
C2200      C2201   1.398       .  A
C2200      H2204   1.085       .  S
C2201      C2202   1.399       .  A
C2201      C2353   1.477       .  S
C2202      H2205   1.084       .  S
C2206      C2207   1.410       .  A
C2206      C2211   1.411       .  A
C2206      C2264   1.480       .  S
C2207      C2208   1.398       .  A
C2207      H2212   1.084       .  S
C2208      C2209   1.398       .  A
C2208      C2380   1.476       .  S
C2209      C2210   1.398       .  A
C2209      H2213   1.085       .  S
C2210      C2211   1.401       .  A
C2210      C2356   1.477       .  S
C2211      H2214   1.083       .  S
C2215      C2216   1.415       .  A
C2215      C2220   1.413       .  A
C2215      C2296   1.488       .  S
C2216      C2217   1.403       .  A
C2216      H2221   1.083       .  S
C2217      C2218   1.398       .  A
C2217      C2341   1.481       .  S
C2218      C2219   1.395       .  A
C2218      H2222   1.085       .  S
C2219      C2220   1.402       .  A
C2219      C2329   1.476       .  S
C2220      H2223   1.083       .  S
C2224      C2225   1.412       .  A
C2224      C2229   1.411       .  A
C2224      C2297   1.484       .  S
C2225      C2226   1.401       .  A
C2225      H2230   1.083       .  S
C2226      C2227   1.397       .  A
C2226      C2344   1.480       .  S
C2227      C2228   1.400       .  A
C2227      H2231   1.085       .  S
C2228      C2229   1.401       .  A
C2228      C2317   1.480       .  S
C2229      H2232   1.083       .  S
C2233      C2234   1.415       .  A
C2233      C2238   1.412       .  A
C2233      C2295   1.488       .  S
C2234      C2235   1.404       .  A
C2234      H2239   1.083       .  S
C2235      C2236   1.395       .  A
C2235      C2332   1.478       .  S
C2236      C2237   1.394       .  A
C2236      H2240   1.085       .  S
C2237      C2238   1.400       .  A
C2237      C2308   1.475       .  S
C2238      H2241   1.083       .  S
C2242      C2243   1.415       .  A
C2242      C2247   1.413       .  A
C2242      C2298   1.488       .  S
C2243      C2244   1.405       .  A
C2243      H2248   1.083       .  S
C2244      C2245   1.398       .  A
C2244      C2320   1.486       .  S
C2245      C2246   1.395       .  A
C2245      H2249   1.085       .  S
C2246      C2247   1.401       .  A
C2246      C2305   1.478       .  S
C2247      H2250   1.083       .  S
O2251     Zr2287   2.434       .  S
O2251      C2262   1.292       .  A
O2252     Zr2286   2.442       .  S
O2252      C2263   1.294   1_556  A
O2253      C2264   1.292       .  A
O2254     Zr2259   2.442       .  S
O2254      C2265   1.294       .  A
O2255     Zr2289   2.437       .  S
O2255      C2265   1.293       .  A
O2256     Zr2288   2.431       .  S
O2256      C2264   1.292       .  A
O2257      C2263   1.293   1_556  A
O2258     Zr2259   2.440       .  S
O2258      C2262   1.293       .  A
Zr2259     O2269   2.340       .  S
O2260     Zr2286   2.342       .  S
O2261     Zr2288   2.339       .  S
H2266      O2267   0.966       .  S
H2268      O2269   0.966       .  S
O2269     Zr2287   2.341       .  S
O2269     Zr2289   2.342       .  S
O2270      C2293   1.293       .  A
O2271      C2294   1.291       .  A
O2272      C2295   1.293       .  A
O2273      C2296   1.295       .  A
O2274     Zr2289   2.440       .  S
O2274      C2297   1.293       .  A
O2275     Zr2288   2.440       .  S
O2275      C2298   1.293       .  A
O2276      C2299   1.293       .  A
O2277     Zr2290   2.448       .  S
O2277      C2300   1.294       .  A
O2278      C2299   1.292       .  A
O2279      C2300   1.292       .  A
O2280      C2295   1.294       .  A
O2281      C2298   1.294       .  A
O2282     Zr2287   2.435       .  S
O2282      C2297   1.292       .  A
O2283     Zr2286   2.438       .  S
O2283      C2296   1.293       .  A
O2284      C2293   1.294       .  A
O2285     Zr2290   2.438       .  S
O2285      C2294   1.293       .  A
Zr2290     O2291   2.332       .  S
H2301      O2302   0.966       .  S
H2303      O2304   0.966       .  S
C2305      C2310   1.411       .  A
C2306      C2307   1.403       .  A
C2306      H2311   1.082       .  S
C2307      C2314   1.444       .  S
C2308      C2309   1.401       .  A
C2309      C2310   1.396       .  A
C2309      H2312   1.085       .  S
C2310      C2313   1.444       .  S
C2313      N2315   1.157       .  T
C2314      N2316   1.157       .  T
C2317      C2318   1.404   1_655  A
C2317      C2322   1.411       .  A
C2318      C2319   1.405       .  A
C2318      H2323   1.085       .  S
C2319      C2320   1.413   1_455  A
C2319      C2326   1.442       .  S
C2320      C2321   1.405       .  A
C2321      C2322   1.396       .  A
C2321      H2324   1.085       .  S
C2322      C2325   1.445       .  S
C2325      N2327   1.157       .  T
C2326      N2328   1.156       .  T
C2329      C2330   1.401       .  A
C2329      C2334   1.410   1_655  A
C2330      C2331   1.399       .  A
C2330      H2335   1.085       .  S
C2331      C2332   1.412       .  A
C2331      C2338   1.445       .  S
C2332      C2333   1.403   1_655  A
C2333      C2334   1.402       .  A
C2337      N2339   1.157       .  T
C2338      N2340   1.157       .  T
C2341      C2342   1.404       .  A
C2342      C2343   1.403       .  A
C2342      H2347   1.085       .  S
C2343      C2344   1.411       .  A
C2343      C2350   1.442       .  S
C2345      C2346   1.399       .  A
C2345      H2348   1.085       .  S
C2346      C2349   1.444       .  S
C2349      N2351   1.157       .  T
C2350      N2352   1.156       .  T
C2353      C2354   1.404       .  A
C2354      C2355   1.402       .  A
C2354      H2359   1.085       .  S
C2355      C2356   1.411       .  A
C2355      C2362   1.444       .  S
C2357      C2358   1.398       .  A
C2357      H2360   1.085       .  S
C2358      C2361   1.444       .  S
C2361      N2363   1.157       .  T
C2362      N2364   1.157       .  T
C2365      C2366   1.405       .  A
C2365      C2370   1.415       .  A
C2366      C2367   1.393       .  A
C2366      H2371   1.085       .  S
C2367      C2368   1.410       .  A
C2367      C2374   1.445       .  S
C2368      C2369   1.405       .  A
C2369      C2370   1.406       .  A
C2373      N2375   1.157       .  T
C2374      N2376   1.157       .  T
C2377      C2378   1.405   1_565  A
C2377      C2382   1.413       .  A
C2378      C2379   1.404       .  A
C2379      C2380   1.410   1_545  A
C2380      C2381   1.399       .  A
C2381      C2382   1.395       .  A
C2381      H2384   1.085       .  S
C2382      C2385   1.445       .  S
C2385      N2387   1.157       .  T
C2386      N2388   1.156       .  T
C2389      C2390   1.404       .  A
C2389      C2394   1.410       .  A
C2390      C2391   1.396       .  A
C2390      H2395   1.085       .  S
C2391      C2392   1.415       .  A
C2391      C2398   1.445       .  S
C2392      C2393   1.403       .  A
C2393      C2394   1.404       .  A
C2393      H2396   1.079   1_565  S
C2394      C2397   1.440   1_565  S
C2397      N2399   1.156       .  T
C2398      N2400   1.157       .  T
C2401      C2406   1.410       .  A
C2402      C2403   1.398       .  A
C2402      H2407   1.081       .  S
C2403      C2410   1.444       .  S
C2404      C2405   1.403       .  A
C2405      C2406   1.402       .  A
C2405      H2408   1.085       .  S
C2406      C2409   1.443       .  S
C2409      N2411   1.157       .  T
C2410      N2412   1.157       .  T
C2413      C2414   1.403   1_554  A
C2414      C2415   1.404       .  A
C2414      H2419   1.079       .  S
C2415      C2416   1.411   1_556  A
C2415      C2422   1.440       .  S
C2417      C2418   1.400       .  A
C2417      H2420   1.085       .  S
C2418      C2421   1.445       .  S
C2421      N2423   1.157       .  T
C2422      N2424   1.156       .  T
C2425      C2430   1.410       .  A
C2426      C2427   1.402       .  A
C2426      H2431   1.085       .  S
C2427      C2434   1.442       .  S
C2428      C2429   1.402       .  A
C2429      C2430   1.395       .  A
C2429      H2432   1.085       .  S
C2430      C2433   1.445       .  S
C2433      N2435   1.157       .  T
C2434      N2436   1.156       .  T
C2437      C2438   1.402       .  A
C2438      C2439   1.401       .  A
C2438      H2443   1.083       .  S
C2439      C2440   1.409   1_556  A
C2439      C2446   1.444       .  S
C2441      C2442   1.397       .  A
C2441      H2444   1.085       .  S
C2442      C2445   1.443       .  S
C2445      N2447   1.156       .  T
C2446      N2448   1.157       .  T
