geometry optimzed in LAMMPS
_audit_creation_date              2020-12-01 
_audit_creation_method            'lammps2cif' 
_symmetry_space_group_name_H-M    'P1' 
_symmetry_Int_Tables_number       1 
_symmetry_cell_setting            triclinic 
loop_ 
_symmetry_equiv_pos_as_xyz 
  x,y,z 
_cell_length_a                    36.67726213 
_cell_length_b                    36.565538978452985 
_cell_length_c                    35.14690228933736 
_cell_angle_alpha                 90.17083843148795 
_cell_angle_beta                  89.93292133529812 
_cell_angle_gamma                 89.90877385817492 
loop_ 
_atom_site_label 
_atom_site_type_symbol 
_atom_site_fract_x 
_atom_site_fract_y 
_atom_site_fract_z 
_atom_site_charge 
O1          O  0.27954112  0.29553360  0.35278397    -0.72000
O2          O  0.21125989  0.20663296  0.35198484    -0.72300
O3          O  0.28947958  0.21675460  0.35398393    -0.72100
O4          O  0.20150833  0.28493868  0.35072918    -0.72100
O5          O  0.22531078  0.29415098  0.29735568    -0.72100
O6          O  0.26915762  0.20517356  0.30014432    -0.72100
O7          O  0.20304737  0.22781775  0.29751642    -0.72000
O8          O  0.29174159  0.27208429  0.30004788    -0.72200
V9          V  0.24543846  0.25093293  0.35473407     1.35200
V10         V  0.24731704  0.24985034  0.29931298     1.35200
C11         C  0.29928167  0.29712179  0.32213588     0.77200
C12         C  0.19357807  0.20404343  0.32010616     0.77300
C13         C  0.29291248  0.19722406  0.32331808     0.77100
C14         C  0.20051081  0.30298720  0.31911674     0.77100
O15         O  0.32309836  0.29518962  0.24285104    -0.72000
O16         O  0.32647005  0.20562541  0.19874245    -0.72300
O17         O  0.32443572  0.22946235  0.26768947    -0.72100
O18         O  0.32525488  0.27206042  0.17411348    -0.72100
O19         O  0.37651033  0.29477295  0.18488268    -0.72100
O20         O  0.37674080  0.20829679  0.25873964    -0.72100
O21         O  0.37804224  0.21646509  0.17643242    -0.72000
O22         O  0.37492991  0.28725943  0.26639072    -0.72200
V23         V  0.32544330  0.25054552  0.22079209     1.35200
V24         V  0.37871022  0.25167080  0.22172335     1.35200
C25         C  0.34435195  0.30509648  0.26779359     0.77200
C26         C  0.34858314  0.19703540  0.17397216     0.77300
C27         C  0.34648707  0.20607711  0.27784254     0.77100
C28         C  0.34685401  0.29627505  0.16486701     0.77100
O29         O  0.26791557  0.32733907  0.26593275    -0.72000
O30         O  0.22767381  0.32560571  0.17177099    -0.72300
O31         O  0.29320436  0.32722667  0.19741161    -0.72100
O32         O  0.20290991  0.32591361  0.23977340    -0.72100
O33         O  0.21144175  0.37786943  0.26307243    -0.72100
O34         O  0.28242725  0.37821988  0.17311533    -0.72100
O35         O  0.20404004  0.37704702  0.18146945    -0.72000
O36         O  0.29004919  0.37880256  0.25488401    -0.72200
V37         V  0.24797435  0.32699746  0.21868166     1.35200
V38         V  0.24696865  0.38030700  0.21816700     1.35200
C39         C  0.29169762  0.34919435  0.27510652     0.77200
C40         C  0.20320817  0.34670101  0.16236944     0.77300
C41         C  0.30188444  0.34858030  0.17202765     0.77100
C42         C  0.19320273  0.34752222  0.26458036     0.77100
O43         O  0.17152801  0.26985378  0.26370060    -0.72000
O44         O  0.17508124  0.22667390  0.17070772    -0.72300
O45         O  0.17355266  0.29264921  0.19496372    -0.72100
O46         O  0.17297898  0.20353583  0.23938567    -0.72100
O47         O  0.12113288  0.21386056  0.26147839    -0.72100
O48         O  0.12281793  0.28182213  0.17028181    -0.72100
O49         O  0.12346471  0.20400030  0.17960902    -0.72000
O50         O  0.12049924  0.29203941  0.25117439    -0.72200
V51         V  0.17280950  0.24818298  0.21721003     1.35200
V52         V  0.11969440  0.24781142  0.21559752     1.35200
C53         C  0.14966279  0.29413867  0.27187307     0.77200
C54         C  0.15390841  0.20243306  0.16075281     0.77300
C55         C  0.15230365  0.30123355  0.16952288     0.77100
C56         C  0.15099850  0.19501797  0.26414405     0.77100
O57         O  0.29569933  0.12207585  0.18484391    -0.72000
O58         O  0.20630231  0.12111858  0.25469258    -0.72300
O59         O  0.21770077  0.12063120  0.17311099    -0.72100
O60         O  0.28465924  0.12269325  0.26652281    -0.72100
O61         O  0.29431723  0.17431947  0.24322356    -0.72100
O62         O  0.20630553  0.17226134  0.19585966    -0.72100
O63         O  0.22767730  0.17307257  0.26560621    -0.72000
O64         O  0.27275464  0.17343519  0.17366697    -0.72200
V65         V  0.25116288  0.11937202  0.21984759     1.35200
V66         V  0.25024303  0.17272267  0.21960485     1.35200
C67         C  0.29732925  0.15199725  0.16517890     0.77200
C68         C  0.20351768  0.15125521  0.27404674     0.77300
C69         C  0.19854776  0.15038416  0.17050802     0.77100
C70         C  0.30289990  0.15306901  0.26877861     0.77100
O71         O  0.21685645  0.29306457  0.08447850    -0.72000
O72         O  0.28706174  0.20532479  0.08637268    -0.72300
O73         O  0.20838561  0.21438700  0.08486410    -0.72100
O74         O  0.29556870  0.28390458  0.08650552    -0.72100
O75         O  0.27117421  0.29469209  0.13909822    -0.72100
O76         O  0.23070336  0.20376570  0.13832290    -0.72100
O77         O  0.29600804  0.22852409  0.13994228    -0.72000
O78         O  0.20549652  0.26995281  0.13731398    -0.72200
V79         V  0.25203421  0.24913137  0.08305057     1.35200
V80         V  0.25082595  0.24929564  0.13829458     1.35200
C81         C  0.19692570  0.29444845  0.11502492     0.77200
C82         C  0.30538860  0.20398478  0.11795973     0.77300
C83         C  0.20685926  0.19482206  0.11560295     0.77100
C84         C  0.29593275  0.30349824  0.11736016     0.77100
C85         C  0.32257405  0.32824001  0.29971641    -0.02700
C86         C  0.42483015  0.42032164  0.38777729    -0.02700
C87         C  0.32544093  0.17478975  0.30190801    -0.02700
C88         C  0.42434170  0.07587294  0.38955846    -0.02700
C89         C  0.17005551  0.32579500  0.29629998    -0.02700
C90         C  0.07767807  0.42018984  0.39242568    -0.02700
C91         C  0.32588071  0.32748706  0.14019038    -0.02700
C92         C  0.42484132  0.43038550  0.05821505    -0.02700
C93         C  0.17160893  0.17238968  0.29733188    -0.02700
C94         C  0.07730714  0.07918080  0.39379508    -0.02700
C95         C  0.17311695  0.32518627  0.13774337    -0.02700
C96         C  0.07761983  0.42999777  0.05708319    -0.02700
C97         C  0.32827148  0.17323135  0.14110849    -0.02700
C98         C  0.42177615  0.07553806  0.04688548    -0.02700
C99         C  0.17598316  0.17111230  0.13732648    -0.02700
C100        C  0.07414328  0.07472946  0.05181338    -0.02700
O101        O  0.07281984  0.47542684  0.51845149    -0.72000
O102        O  0.07685741  0.02492803  0.42897333    -0.72300
O103        O  0.07561751  0.45233601  0.44986601    -0.72100
O104        O  0.07413665  0.05000942  0.49719930    -0.72100
O105        O  0.12550928  0.04204336  0.52186954    -0.72100
O106        O  0.12764082  0.46260746  0.42836647    -0.72100
O107        O  0.12733571  0.04899642  0.44044661    -0.72000
O108        O  0.12497590  0.45346844  0.51005855    -0.72200
V109        V  0.07508437  0.49699499  0.47205216     1.35200
V110        V  0.12825945  0.49719578  0.47410128     1.35200
C111        C  0.09843024  0.46003344  0.03144020     0.77200
C112        C  0.09820109  0.04922119  0.41965012     0.76500
C113        C  0.09795905  0.44355026  0.42548653     0.77100
C114        C  0.09564907  0.05070995  0.01998418     0.77100
O115        O  0.47888624  0.07758231  0.42464675    -0.72000
O116        O  0.01908450  0.08232551  0.51937711    -0.72300
O117        O  0.45415109  0.07941798  0.49288437    -0.72100
O118        O  0.04439726  0.08060628  0.45070761    -0.72100
O119        O  0.03391425  0.13104795  0.42527791    -0.72100
O120        O  0.46426552  0.12645026  0.01300954    -0.72100
O121        O  0.04074919  0.13385976  0.50759722    -0.72000
O122        O  0.45557343  0.12932006  0.43219793    -0.72200
V123        V  0.99920798  0.08055256  0.47182876     1.35200
V124        V  0.99795555  0.13386906  0.46979750     1.35200
C125        C  0.45475723  0.09850474  0.41372340     0.77200
C126        C  0.04399943  0.09612290  0.02678625     0.77300
C127        C  0.44559711  0.09638841  0.01483451     0.77100
C128        C  0.05325427  0.10135404  0.42486776     0.77100
O129        O  0.02213105  0.46191673  0.05680181    -0.72000
O130        O  0.47662199  0.04266056  0.04836991    -0.72300
O131        O  0.04259484  0.01895507  0.05113354    -0.72100
O132        O  0.45591894  0.48646139  0.05595263    -0.72100
O133        O  0.46670687  0.46679504  0.11014488    -0.72100
O134        O  0.03101551  0.04131654  0.10421069    -0.72100
O135        O  0.45265551  0.03362323  0.10156990    -0.72000
O136        O  0.04551706  0.47514857  0.10911452    -0.72200
V137        V  0.99780571  0.99766134  0.05010907     1.35200
V138        V  0.49586355  0.99816530  0.10558650     1.35200
C139        C  0.04686091  0.45434898  0.07912475     0.77200
C140        C  0.45195643  0.05207621  0.07009691     0.77300
C141        C  0.05078622  0.04331749  0.07371903     0.77100
C142        C  0.44744561  0.46306888  0.07941888     0.77100
O143        O  0.42243491  0.45240368  0.48989585    -0.72000
O144        O  0.42417232  0.04589371  0.44843831    -0.72300
O145        O  0.42309616  0.02449784  0.51832961    -0.72100
O146        O  0.42483752  0.47539549  0.42130311    -0.72100
O147        O  0.37283868  0.45312704  0.43001268    -0.72100
O148        O  0.37167259  0.04573850  0.50564252    -0.72100
O149        O  0.37353240  0.03393164  0.42419181    -0.72000
O150        O  0.37047067  0.46299492  0.51164662    -0.72200
V151        V  0.42429651  0.00179739  0.47233205     1.35200
V152        V  0.37112078  0.00063551  0.47095366     1.35200
C153        C  0.40445913  0.45284306  0.02429110     0.77200
C154        C  0.40303893  0.05336914  0.42240914     0.77300
C155        C  0.40095417  0.04419847  0.02231626     0.77100
C156        C  0.40344030  0.45131046  0.41159498     0.77100
O157        O  0.03784511  0.45247837  0.33717019    -0.72000
O158        O  0.46912140  0.04277097  0.33865650    -0.72300
O159        O  0.04724717  0.03471931  0.34084295    -0.72100
O160        O  0.45916707  0.46182650  0.33448687    -0.72100
O161        O  0.48037606  0.45146513  0.38845977    -0.72100
O162        O  0.02282183  0.04607100  0.39341562    -0.72100
O163        O  0.45703744  0.02096890  0.39196966    -0.72000
O164        O  0.04616130  0.47554596  0.39096014    -0.72200
V165        V  0.00419959  0.99917783  0.33823669     1.35200
V166        V  0.50240170  0.00070995  0.39357800     1.35200
C167        C  0.05562204  0.45106184  0.36904388     0.77200
C168        C  0.44876574  0.04469161  0.36883511     0.77300
C169        C  0.04755708  0.05456607  0.37148605     0.77100
C170        C  0.45647631  0.44289170  0.36561103     0.77100
O171        O  0.03249826  0.36892212  0.51575869    -0.72000
O172        O  0.46615562  0.36926365  0.42304958    -0.72300
O173        O  0.04388164  0.36898302  0.43484269    -0.72100
O174        O  0.45431826  0.36918167  0.50446154    -0.72100
O175        O  0.47672854  0.42053956  0.51598853    -0.72100
O176        O  0.02183928  0.42083723  0.42417970    -0.72100
O177        O  0.45542540  0.42077432  0.44634422    -0.72000
O178        O  0.04321879  0.42042919  0.49351258    -0.72200
V179        V  0.49918630  0.36681157  0.46955297     1.35200
V180        V  0.49927343  0.42012901  0.46999791     1.35200
C181        C  0.05429661  0.40754719  0.02596129     0.77200
C182        C  0.44731596  0.39920086  0.42084927     0.77300
C183        C  0.04618612  0.39914371  0.41571606     0.77100
C184        C  0.45579694  0.40791898  0.03527374     0.77100
C185        C  0.11923239  0.13308515  0.13174273    -0.09400
C186        C  0.15128457  0.14550629  0.11408164     0.06800
C187        C  0.15768066  0.13379928  0.07608423    -0.03200
C188        C  0.13206061  0.11189217  0.05732515    -0.07600
C189        C  0.09962749  0.09994083  0.07482741     0.05900
C190        C  0.09279233  0.11281121  0.11228136    -0.02700
Br191      Br  0.04742550  0.10920233  0.13872607    -0.02400
H192        H  0.11373541  0.14036117  0.16100991     0.09800
H193        H  0.13793439  0.10432517  0.02817627     0.07800
Br194      Br  0.20117704  0.14231178  0.04720891    -0.02800
C195        C  0.39050022  0.15049633  0.11777060    -0.09400
C196        C  0.35220976  0.14806737  0.11639690     0.06800
C197        C  0.33704347  0.12149781  0.09171041    -0.03200
C198        C  0.35959591  0.09808298  0.07054228    -0.07600
C199        C  0.39787524  0.10081086  0.07152831     0.05900
C200        C  0.41301630  0.12791139  0.09556176    -0.02700
Br201      Br  0.46433031  0.13626816  0.09997673    -0.02400
H202        H  0.40370497  0.17034967  0.13570629     0.09800
H203        H  0.34635110  0.07782685  0.05307075     0.07800
Br204      Br  0.28564455  0.11454563  0.08535844    -0.02800
C205        C  0.11028456  0.35118895  0.12079520    -0.09400
C206        C  0.14840667  0.35113239  0.11525723     0.06800
C207        C  0.16299469  0.37861924  0.09177953    -0.03200
C208        C  0.14037366  0.40528610  0.07592598    -0.07600
C209        C  0.10214724  0.40460756  0.08042284     0.05900
C210        C  0.08748294  0.37689244  0.10361560    -0.02700
Br211      Br  0.03648869  0.37189320  0.11365277    -0.02400
H212        H  0.09709829  0.33141992  0.13869711     0.09800
H213        H  0.15371347  0.42615112  0.05959216     0.07800
Br214      Br  0.21381027  0.38246965  0.08058522    -0.02800
C215        C  0.13975487  0.10149170  0.37103978    -0.09400
C216        C  0.10139535  0.10307618  0.36834720     0.06800
C217        C  0.08628165  0.12751095  0.34157008    -0.03200
C218        C  0.10906117  0.14890551  0.31868740    -0.07600
C219        C  0.14743248  0.14792321  0.32208959     0.05900
C220        C  0.16249246  0.12369736  0.34905079    -0.02700
Br221      Br  0.21406777  0.11851172  0.35732389    -0.02400
H222        H  0.15306343  0.08312180  0.39048779     0.09800
H223        H  0.09585355  0.16639369  0.29846174     0.07800
Br224      Br  0.03465564  0.13299508  0.33361458    -0.02800
C225        C  0.38267206  0.36639691  0.13563175    -0.09400
C226        C  0.35073851  0.35382315  0.11779174     0.06800
C227        C  0.34288110  0.36841125  0.08129696    -0.03200
C228        C  0.36686430  0.39306185  0.06393514    -0.07600
C229        C  0.39926096  0.40515354  0.08136201     0.05900
C230        C  0.40732718  0.39010900  0.11764743    -0.02700
Br231      Br  0.45127960  0.39801205  0.14547117    -0.02400
H232        H  0.38907187  0.35740725  0.16407209     0.09800
H233        H  0.35988225  0.40220686  0.03563311     0.07800
Br234      Br  0.29975923  0.35913132  0.05236104    -0.02800
C235        C  0.13962779  0.39665387  0.37064063    -0.09400
C236        C  0.10135286  0.39534573  0.36786547     0.06800
C237        C  0.08581893  0.37055398  0.34157564    -0.03200
C238        C  0.10822640  0.34824736  0.31931352    -0.07600
C239        C  0.14647647  0.35006315  0.32153078     0.05900
C240        C  0.16205769  0.37491700  0.34775628    -0.02700
Br241      Br  0.21378213  0.38052207  0.35517038    -0.02400
H242        H  0.15294611  0.41472258  0.39041241     0.09800
H243        H  0.09490156  0.32961073  0.30007116     0.07800
Br244      Br  0.03413881  0.36434072  0.33471976    -0.02800
C245        C  0.36495558  0.11811383  0.30823807    -0.09400
C246        C  0.35094461  0.14989950  0.32571825     0.06800
C247        C  0.36254856  0.15678811  0.36373252    -0.03200
C248        C  0.38422956  0.13132146  0.38312006    -0.07600
C249        C  0.39864977  0.09999290  0.36546723     0.05900
C250        C  0.38790542  0.09336746  0.32717891    -0.02700
Br251      Br  0.39936606  0.05056192  0.29797956    -0.02400
H252        H  0.35815484  0.11208430  0.27892546     0.09800
H253        H  0.39078570  0.13686646  0.41255695     0.07800
Br254      Br  0.35465788  0.20072002  0.39212327    -0.02800
C255        C  0.39971702  0.35846626  0.36677540    -0.09400
C256        C  0.39928220  0.39682702  0.36355195     0.06800
C257        C  0.37276776  0.41256596  0.33941426    -0.03200
C258        C  0.34723516  0.39044262  0.32080812    -0.07600
C259        C  0.34802474  0.35200648  0.32373934     0.05900
C260        C  0.37508089  0.33632623  0.34712955    -0.02700
Br261      Br  0.38070007  0.28470018  0.35402499    -0.02400
H262        H  0.41934034  0.34474318  0.38444973     0.09800
H263        H  0.32723751  0.40408640  0.30357633     0.07800
Br264      Br  0.36882848  0.46419908  0.33059482    -0.02800
O265        O  0.28048107  0.29619115  0.86003070    -0.72000
O266        O  0.21174696  0.20760729  0.85673949    -0.72300
O267        O  0.29020611  0.21741503  0.85962631    -0.72100
O268        O  0.20232849  0.28617983  0.85698105    -0.72100
O269        O  0.22674914  0.29643777  0.80415805    -0.72100
O270        O  0.26969721  0.20684043  0.80566841    -0.72100
O271        O  0.20354178  0.23027694  0.80299429    -0.72000
O272        O  0.29284942  0.27369480  0.80685630    -0.72200
V273        V  0.24611836  0.25178426  0.86075638     1.35200
V274        V  0.24823045  0.25180011  0.80541336     1.35200
C275        C  0.30045893  0.29821867  0.82958571     0.77200
C276        C  0.19404772  0.20580892  0.82478200     0.77300
C277        C  0.29355999  0.19838293  0.82858621     0.77100
C278        C  0.20174958  0.30495626  0.82576787     0.77100
O279        O  0.32535262  0.29768671  0.75044592    -0.72000
O280        O  0.32885629  0.20854449  0.70494927    -0.72300
O281        O  0.32599168  0.23171039  0.77420479    -0.72100
O282        O  0.32814848  0.27502975  0.68134812    -0.72100
O283        O  0.37883861  0.29814063  0.69376671    -0.72100
O284        O  0.37807580  0.21000329  0.76499370    -0.72100
O285        O  0.38032621  0.22000546  0.68292406    -0.72000
O286        O  0.37665238  0.28873819  0.77481175    -0.72200
V287        V  0.32760847  0.25323233  0.72769650     1.35200
V288        V  0.38074174  0.25416544  0.72925940     1.35200
C289        C  0.34626264  0.30691299  0.77605301     0.77200
C290        C  0.35087855  0.20058365  0.67988078     0.77300
C291        C  0.34761055  0.20776580  0.78370890     0.77100
C292        C  0.34965069  0.29956415  0.67305094     0.77100
O293        O  0.26984670  0.32942235  0.77330584    -0.72000
O294        O  0.23120308  0.33051586  0.67812925    -0.72300
O295        O  0.29597962  0.33056758  0.70524800    -0.72100
O296        O  0.20500508  0.32952391  0.74628818    -0.72100
O297        O  0.21410774  0.38060198  0.77123552    -0.72100
O298        O  0.28583771  0.38200190  0.68175509    -0.72100
O299        O  0.20728565  0.38126695  0.68972724    -0.72000
O300        O  0.29260411  0.38093659  0.76367647    -0.72200
V301        V  0.25047836  0.33039314  0.72575363     1.35200
V302        V  0.24998585  0.38358912  0.72663372     1.35200
C303        C  0.29366439  0.35096380  0.78333771     0.77200
C304        C  0.20705869  0.35197295  0.66887002     0.77300
C305        C  0.30502203  0.35216207  0.68022553     0.77100
C306        C  0.19539411  0.35052238  0.77176641     0.77100
O307        O  0.17375698  0.27337725  0.76859401    -0.72000
O308        O  0.17772865  0.23145688  0.67517357    -0.72300
O309        O  0.17678030  0.29726795  0.69995246    -0.72100
O310        O  0.17452206  0.20744483  0.74362388    -0.72100
O311        O  0.12229721  0.21736866  0.76481814    -0.72100
O312        O  0.12557252  0.28853416  0.67544301    -0.72100
O313        O  0.12540698  0.20992588  0.68251404    -0.72000
O314        O  0.12265800  0.29585366  0.75653868    -0.72200
V315        V  0.17507624  0.25242940  0.72184661     1.35200
V316        V  0.12183705  0.25280131  0.71971569     1.35200
C317        C  0.15170847  0.29730768  0.77739072     0.77200
C318        C  0.15617948  0.20796739  0.66429603     0.77300
C319        C  0.15561535  0.30718904  0.67483109     0.77100
C320        C  0.15205998  0.19833398  0.76777652     0.77100
O321        O  0.29693542  0.12613256  0.68866378    -0.72000
O322        O  0.20710031  0.12429661  0.75751621    -0.72300
O323        O  0.21910431  0.12522110  0.67587331    -0.72100
O324        O  0.28528790  0.12539744  0.76975439    -0.72100
O325        O  0.29474714  0.17784169  0.74809127    -0.72100
O326        O  0.20746472  0.17633340  0.69957007    -0.72100
O327        O  0.22827767  0.17616815  0.76952808    -0.72000
O328        O  0.27444130  0.17792434  0.67846179    -0.72200
V329        V  0.25211430  0.12305019  0.72298407     1.35200
V330        V  0.25118861  0.17647314  0.72384202     1.35200
C331        C  0.29899784  0.15647389  0.66986204     0.77200
C332        C  0.20421098  0.15410635  0.77740516     0.77300
C333        C  0.19998473  0.15502688  0.67362748     0.77100
C334        C  0.30337995  0.15576991  0.77283817     0.77100
O335        O  0.22095924  0.29896600  0.59044630    -0.72000
O336        O  0.29022581  0.21071535  0.59168327    -0.72300
O337        O  0.21141837  0.22020619  0.58894838    -0.72100
O338        O  0.29888078  0.28915872  0.59350527    -0.72100
O339        O  0.27433456  0.29813696  0.64666813    -0.72100
O340        O  0.23295375  0.20815971  0.64234741    -0.72100
O341        O  0.29823585  0.23256604  0.64611776    -0.72000
O342        O  0.20838173  0.27493113  0.64256998    -0.72200
V343        V  0.25546512  0.25468045  0.58866965     1.35200
V344        V  0.25334914  0.25349829  0.64398427     1.35200
C345        C  0.20082814  0.30014245  0.62078681     0.77200
C346        C  0.30797025  0.20870628  0.62359962     0.77300
C347        C  0.20922540  0.20007683  0.61926314     0.77100
C348        C  0.29920883  0.30723871  0.62527852     0.77100
C349        C  0.32413878  0.32961790  0.80812985    -0.02700
C350        C  0.42462099  0.42271910  0.89801254    -0.02700
C351        C  0.32604181  0.17624604  0.80647736    -0.02700
C352        C  0.42602749  0.07404430  0.88699858    -0.02700
C353        C  0.17169231  0.32828165  0.80285663    -0.02700
C354        C  0.07739411  0.42187272  0.89827328    -0.02700
C355        C  0.32885465  0.33075171  0.64842365    -0.02700
C356        C  0.42070038  0.42088530  0.54753492    -0.02700
C357        C  0.17221233  0.17463482  0.80089698    -0.02700
C358        C  0.07912875  0.07368272  0.89160439    -0.02700
C359        C  0.17733491  0.33112654  0.64321901    -0.02700
C360        C  0.07315170  0.41997108  0.55235025    -0.02700
C361        C  0.33033268  0.17763058  0.64640179    -0.02700
C362        C  0.42133186  0.08094574  0.54977823    -0.02700
C363        C  0.17789950  0.17659062  0.64053269    -0.02700
C364        C  0.07333336  0.08428927  0.55382921    -0.02700
O365        O  0.07683943  0.48379247  0.02132332    -0.72000
O366        O  0.07758364  0.01835350  0.92504587    -0.72300
O367        O  0.07684002  0.45689314  0.95397996    -0.72100
O368        O  0.07484001  0.04192959  0.99415168    -0.72100
O369        O  0.12559451  0.03179830  0.01923275    -0.72100
O370        O  0.12814668  0.46589237  0.92993713    -0.72100
O371        O  0.12846398  0.04078613  0.93774332    -0.72000
O372        O  0.12808017  0.46055060  0.01137811    -0.72200
V373        V  0.07748339  0.50268618  0.97363206     1.35200
V374        V  0.13061423  0.50238973  0.97364890     1.35200
C375        C  0.09435818  0.45150219  0.52847312     0.77200
C376        C  0.09952061  0.04247080  0.91664173     0.76500
C377        C  0.09839344  0.44679870  0.92936320     0.77100
C378        C  0.09503864  0.06008920  0.52243160     0.77100
O379        O  0.48032714  0.07336098  0.92211495    -0.72000
O380        O  0.02019272  0.07450411  0.01686080    -0.72300
O381        O  0.45516418  0.07437611  0.99028688    -0.72100
O382        O  0.04557959  0.07372985  0.94822827    -0.72100
O383        O  0.03685918  0.12540826  0.92460448    -0.72100
O384        O  0.46189585  0.13228340  0.51418969    -0.72100
O385        O  0.04305506  0.12593957  0.00684762    -0.72000
O386        O  0.45848611  0.12559145  0.93091461    -0.72200
V387        V  0.00039076  0.07459810  0.96936106     1.35200
V388        V  0.00065433  0.12803586  0.96885946     1.35200
C389        C  0.45688777  0.09523122  0.91171539     0.77200
C390        C  0.04254254  0.10465628  0.52849396     0.77300
C391        C  0.44421309  0.10168834  0.51698737     0.77100
C392        C  0.05526505  0.09515313  0.92328473     0.77100
O393        O  0.01818094  0.45194318  0.55096820    -0.72000
O394        O  0.47677640  0.04942572  0.55163957    -0.72300
O395        O  0.04300678  0.02762026  0.55450919    -0.72100
O396        O  0.45269950  0.47598901  0.54787113    -0.72100
O397        O  0.46024666  0.45423444  0.60229422    -0.72100
O398        O  0.03130936  0.05097396  0.60710281    -0.72100
O399        O  0.45336588  0.04104218  0.60526412    -0.72000
O400        O  0.03898002  0.46236361  0.60514886    -0.72200
V401        V  0.99883561  0.00506857  0.55457350     1.35200
V402        V  0.49753967  0.00692666  0.60993604     1.35200
C403        C  0.04160788  0.44306162  0.57415739     0.77200
C404        C  0.45208211  0.05871569  0.57330336     0.77300
C405        C  0.05076715  0.05273972  0.57641659     0.77100
C406        C  0.44286969  0.45219202  0.57023489     0.77100
O407        O  0.42636317  0.46057602  0.99901942    -0.72000
O408        O  0.42496235  0.04238547  0.94488729    -0.72300
O409        O  0.42245310  0.01955468  0.01419042    -0.72100
O410        O  0.42612791  0.47937919  0.92877147    -0.72100
O411        O  0.37419996  0.45823384  0.94028435    -0.72100
O412        O  0.37184422  0.04263312  0.00142906    -0.72100
O413        O  0.37404045  0.03268047  0.92002906    -0.72000
O414        O  0.37453285  0.47162599  0.02126315    -0.72200
V415        V  0.42339519  0.99782681  0.96759960     1.35200
V416        V  0.37025016  0.99839199  0.96578037     1.35200
C417        C  0.40019690  0.44385919  0.51442290     0.77200
C418        C  0.40415031  0.05119875  0.91903163     0.77300
C419        C  0.40092958  0.04861503  0.52619341     0.77100
C420        C  0.40420006  0.45510132  0.92101289     0.77100
O421        O  0.03630942  0.45161512  0.84254706    -0.72000
O422        O  0.47014302  0.04128754  0.83513344    -0.72300
O423        O  0.04812552  0.03100864  0.83736134    -0.72100
O424        O  0.45778881  0.46129965  0.84174723    -0.72100
O425        O  0.48010604  0.45375035  0.89581421    -0.72100
O426        O  0.02371997  0.04169773  0.89006303    -0.72100
O427        O  0.45717911  0.01819125  0.88760517    -0.72000
O428        O  0.04597542  0.47721333  0.89482382    -0.72200
V429        V  0.00403667  0.99674551  0.83360261     1.35200
V430        V  0.50209554  0.99685400  0.88889240     1.35200
C431        C  0.05483150  0.45166543  0.87396092     0.77200
C432        C  0.44964599  0.04283707  0.86523795     0.77300
C433        C  0.04885977  0.05009804  0.86853252     0.77100
C434        C  0.45578874  0.44405516  0.87399492     0.77100
O435        O  0.03594886  0.37726114  0.02562618    -0.72000
O436        O  0.46658579  0.37281668  0.93493337    -0.72300
O437        O  0.04470439  0.37300076  0.94444910    -0.72100
O438        O  0.45747394  0.37694641  0.01713530    -0.72100
O439        O  0.47968479  0.42912454  0.02478616    -0.72100
O440        O  0.02218273  0.42409700  0.93140939    -0.72100
O441        O  0.45607233  0.42513385  0.95594958    -0.72000
O442        O  0.04507083  0.42806775  0.00013343    -0.72200
V443        V  0.50106429  0.37275057  0.98071031     1.35200
V444        V  0.50074168  0.42605250  0.97802025     1.35200
C445        C  0.05131194  0.39874020  0.51874848     0.77200
C446        C  0.44762269  0.40262279  0.93154960     0.77300
C447        C  0.04639266  0.40200071  0.92344119     0.77100
C448        C  0.45217244  0.39916073  0.52422345     0.77100
C449        C  0.12043828  0.13995069  0.63455254    -0.09400
C450        C  0.15266015  0.15187730  0.61697063     0.06800
C451        C  0.15852661  0.14092633  0.57870337    -0.03200
C452        C  0.13172758  0.12104381  0.55922380    -0.07600
C453        C  0.09897267  0.10965787  0.57664782     0.05900
C454        C  0.09314930  0.12120241  0.61479219    -0.02700
Br455      Br  0.04826851  0.11803488  0.64225187    -0.02400
H456        H  0.11558139  0.14637353  0.66417781     0.09800
H457        H  0.13723079  0.11402888  0.52986194     0.07800
Br458      Br  0.20334543  0.14659448  0.55125836    -0.02800
C459        C  0.39171337  0.15606081  0.62064621    -0.09400
C460        C  0.35353441  0.15265880  0.62105247     0.06800
C461        C  0.33775204  0.12583441  0.59702107    -0.03200
C462        C  0.35980231  0.10284988  0.57489044    -0.07600
C463        C  0.39795815  0.10626448  0.57449835     0.05900
C464        C  0.41367392  0.13377546  0.59764183    -0.02700
Br465      Br  0.46505698  0.14301562  0.59988951    -0.02400
H466        H  0.40512393  0.17648262  0.63771516     0.09800
H467        H  0.34639853  0.08232478  0.55787602     0.07800
Br468      Br  0.28625726  0.11775542  0.59286152    -0.02800
C469        C  0.11971545  0.33930085  0.60569375    -0.09400
C470        C  0.15248337  0.35492812  0.61814574     0.06800
C471        C  0.15863159  0.39224038  0.60861414    -0.03200
C472        C  0.13193900  0.41221466  0.58920816    -0.07600
C473        C  0.09866286  0.39676958  0.57756494     0.05900
C474        C  0.09231923  0.35982841  0.58813608    -0.02700
Br475      Br  0.04657657  0.33509910  0.58596337    -0.02400
H476        H  0.11432872  0.31074291  0.61125365     0.09800
H477        H  0.13776015  0.44062887  0.58310863     0.07800
Br478      Br  0.20309269  0.41880230  0.61605722    -0.02800
C479        C  0.14131910  0.09951055  0.87148075    -0.09400
C480        C  0.10307372  0.09909886  0.86715270     0.06800
C481        C  0.08778958  0.12398323  0.84074002    -0.03200
C482        C  0.11021670  0.14765783  0.81976098    -0.07600
C483        C  0.14836896  0.14852927  0.82459220     0.05900
C484        C  0.16365399  0.12385870  0.85120375    -0.02700
Br485      Br  0.21511327  0.12104974  0.86132515    -0.02400
H486        H  0.15454831  0.08132418  0.89113353     0.09800
H487        H  0.09706139  0.16550053  0.79964288     0.07800
Br488      Br  0.03632717  0.12725350  0.83087589    -0.02800
C489        C  0.39041352  0.35415440  0.62580713    -0.09400
C490        C  0.35223373  0.35486252  0.62280637     0.06800
C491        C  0.33670188  0.37754904  0.59456720    -0.03200
C492        C  0.35897625  0.39757014  0.57003012    -0.07600
C493        C  0.39716369  0.39712874  0.57333309     0.05900
C494        C  0.41261095  0.37502124  0.60204126    -0.02700
Br495      Br  0.46385763  0.37134287  0.61121725    -0.02400
H496        H  0.40381511  0.33767454  0.64691029     0.09800
H497        H  0.34564278  0.41362723  0.54850884     0.07800
Br498      Br  0.28531259  0.38226835  0.58627560    -0.02800
C499        C  0.13955826  0.39771577  0.87772237    -0.09400
C500        C  0.10128260  0.39636736  0.87451210     0.06800
C501        C  0.08618485  0.37136949  0.84822151    -0.03200
C502        C  0.10903893  0.34929148  0.82602960    -0.07600
C503        C  0.14735873  0.35187502  0.82814645     0.05900
C504        C  0.16237821  0.37670001  0.85464619    -0.02700
Br505      Br  0.21391983  0.38363414  0.86197913    -0.02400
H506        H  0.15278048  0.41532218  0.89793041     0.09800
H507        H  0.09600933  0.33038280  0.80690128     0.07800
Br508      Br  0.03456022  0.36514224  0.84106350    -0.02800
C509        C  0.36547179  0.11941982  0.80908789    -0.09400
C510        C  0.35161982  0.15029488  0.82846626     0.06800
C511        C  0.36443323  0.15616501  0.86605455    -0.03200
C512        C  0.38666682  0.13013542  0.88374975    -0.07600
C513        C  0.40057621  0.09942606  0.86440600     0.05900
C514        C  0.38903975  0.09415756  0.82621452    -0.02700
Br515      Br  0.40029778  0.05267467  0.79482636    -0.02400
H516        H  0.35818832  0.11458567  0.77969759     0.09800
H517        H  0.39390980  0.13469162  0.91319409     0.07800
Br518      Br  0.35727222  0.19963385  0.89538323    -0.02800
C519        C  0.39980473  0.36047800  0.87742931    -0.09400
C520        C  0.39865146  0.39886427  0.87461654     0.06800
C521        C  0.37205317  0.41432167  0.85039032    -0.03200
C522        C  0.34721674  0.39192577  0.83115558    -0.07600
C523        C  0.34895066  0.35343776  0.83312387     0.05900
C524        C  0.37598493  0.33803381  0.85681729    -0.02700
Br525      Br  0.38265270  0.28643501  0.86262911    -0.02400
H526        H  0.41966923  0.34712652  0.89518120     0.09800
H527        H  0.32705952  0.40551509  0.81415358     0.07800
Br528      Br  0.36726045  0.46595299  0.84177963    -0.02800
O529        O  0.28403691  0.79693214  0.35944342    -0.72000
O530        O  0.21342302  0.70966988  0.36000389    -0.72300
O531        O  0.29192109  0.71805987  0.36015595    -0.72100
O532        O  0.20550131  0.78855741  0.35909565    -0.72100
O533        O  0.22896465  0.79771099  0.30563879    -0.72100
O534        O  0.26966893  0.70704360  0.30703961    -0.72100
O535        O  0.20404584  0.73188033  0.30632058    -0.72000
O536        O  0.29449596  0.77322558  0.30638298    -0.72200
V537        V  0.24872305  0.75330276  0.36212796     1.35200
V538        V  0.24927680  0.75246006  0.30679986     1.35200
C539        C  0.30326009  0.79795879  0.32838233     0.77200
C540        C  0.19475992  0.70778065  0.32866396     0.77300
C541        C  0.29394083  0.69847415  0.32939796     0.77100
C542        C  0.20460434  0.80702870  0.32768666     0.77100
O543        O  0.32622494  0.79570375  0.24829604    -0.72000
O544        O  0.32559341  0.70587122  0.20419818    -0.72300
O545        O  0.32530376  0.72997793  0.27303612    -0.72100
O546        O  0.32662316  0.77194559  0.17938250    -0.72100
O547        O  0.37823505  0.79361188  0.18994100    -0.72100
O548        O  0.37684192  0.70701251  0.26334762    -0.72100
O549        O  0.37732204  0.71479841  0.18129973    -0.72000
O550        O  0.37776144  0.78568596  0.27155106    -0.72200
V551        V  0.32652534  0.75086983  0.22620438     1.35200
V552        V  0.37975269  0.75020439  0.22652806     1.35200
C553        C  0.34789328  0.80465241  0.27331531     0.77200
C554        C  0.34711544  0.69640793  0.17922429     0.77300
C555        C  0.34672648  0.70586925  0.28271966     0.77100
C556        C  0.34853607  0.79575434  0.17001440     0.77100
O557        O  0.27197668  0.82854033  0.27212080    -0.72000
O558        O  0.23043056  0.82907448  0.17838401    -0.72300
O559        O  0.29617027  0.82825570  0.20322647    -0.72100
O560        O  0.20651125  0.82965854  0.24744894    -0.72100
O561        O  0.21707630  0.88114084  0.27083577    -0.72100
O562        O  0.28634285  0.87955275  0.17923882    -0.72100
O563        O  0.20794784  0.88058959  0.18955781    -0.72000
O564        O  0.29526116  0.87954841  0.26101411    -0.72200
V565        V  0.25124584  0.82930636  0.22526164     1.35200
V566        V  0.25175709  0.88254825  0.22515593     1.35200
C567        C  0.29634296  0.84986039  0.28116190     0.77200
C568        C  0.20637720  0.85082623  0.16950531     0.77300
C569        C  0.30496248  0.84935877  0.17762390     0.77100
C570        C  0.19787721  0.85144049  0.27264170     0.77100
O571        O  0.17467298  0.77494245  0.27170735    -0.72000
O572        O  0.17412286  0.73177301  0.17890195    -0.72300
O573        O  0.17552745  0.79784322  0.20276539    -0.72100
O574        O  0.17317832  0.70873063  0.24785932    -0.72100
O575        O  0.12199661  0.72026381  0.27103321    -0.72100
O576        O  0.12372513  0.78908981  0.17984813    -0.72100
O577        O  0.12230384  0.71056542  0.18956075    -0.72000
O578        O  0.12367738  0.79829134  0.26081137    -0.72200
V579        V  0.17385984  0.75332422  0.22533886     1.35200
V580        V  0.12069347  0.75455865  0.22525699     1.35200
C581        C  0.15334884  0.79943721  0.28071619     0.77200
C582        C  0.15209825  0.70805686  0.16979576     0.77300
C583        C  0.15397663  0.80736553  0.17788918     0.77100
C584        C  0.15133959  0.70053083  0.27298475     0.77100
O585        O  0.29240508  0.62370362  0.19139748    -0.72000
O586        O  0.20423313  0.62509186  0.26237664    -0.72300
O587        O  0.21393094  0.62419403  0.18041161    -0.72100
O588        O  0.28244227  0.62463566  0.27256799    -0.72100
O589        O  0.29279685  0.67610838  0.24901426    -0.72100
O590        O  0.20397125  0.67589660  0.20347036    -0.72100
O591        O  0.22688636  0.67678970  0.27248846    -0.72000
O592        O  0.27014166  0.67506325  0.17956592    -0.72200
V593        V  0.24818797  0.62212820  0.22668118     1.35200
V594        V  0.24846733  0.67545199  0.22609790     1.35200
C595        C  0.29424095  0.65311929  0.17099054     0.77200
C596        C  0.20263095  0.65536179  0.28163151     0.77300
C597        C  0.19526844  0.65434478  0.17820286     0.77100
C598        C  0.30135827  0.65456480  0.27432105     0.77100
O599        O  0.21691493  0.79610826  0.09174301    -0.72000
O600        O  0.28454566  0.70660502  0.09269655    -0.72300
O601        O  0.20610561  0.71754652  0.09214732    -0.72100
O602        O  0.29505346  0.78491061  0.09237922    -0.72100
O603        O  0.27238349  0.79576722  0.14596409    -0.72100
O604        O  0.22827916  0.70715581  0.14584759    -0.72100
O605        O  0.29465036  0.72933958  0.14633945    -0.72000
O606        O  0.20586493  0.77387979  0.14517217    -0.72200
V607        V  0.25066705  0.75123661  0.08984439     1.35200
V608        V  0.25025913  0.75154808  0.14531186     1.35200
C609        C  0.19781681  0.79838934  0.12277089     0.77200
C610        C  0.30320974  0.70481838  0.12401666     0.77300
C611        C  0.20392074  0.69896087  0.12346277     0.77100
C612        C  0.29683506  0.80380840  0.12360189     0.77100
C613        C  0.32706168  0.82839711  0.30557616    -0.02700
C614        C  0.42754860  0.92258245  0.39464482    -0.02700
C615        C  0.32522954  0.67532199  0.30686226    -0.02700
C616        C  0.42477893  0.57292477  0.38689583    -0.02700
C617        C  0.17446577  0.83045188  0.30494901    -0.02700
C618        C  0.08043881  0.92607656  0.39865847    -0.02700
C619        C  0.32768853  0.82722191  0.14540415    -0.02700
C620        C  0.42079169  0.92144977  0.04777349    -0.02700
C621        C  0.17174868  0.67678679  0.30568765    -0.02700
C622        C  0.07788789  0.57369616  0.39207988    -0.02700
C623        C  0.17543550  0.83014148  0.14512486    -0.02700
C624        C  0.07379837  0.92037150  0.05231794    -0.02700
C625        C  0.32552719  0.67344049  0.14653184    -0.02700
C626        C  0.42584079  0.58516265  0.04937312    -0.02700
C627        C  0.17268596  0.67623066  0.14567928    -0.02700
C628        C  0.07787680  0.58347082  0.04904230    -0.02700
O629        O  0.07557015  0.98461502  0.52313160    -0.72000
O630        O  0.07633756  0.51836990  0.42541073    -0.72300
O631        O  0.07813125  0.95952774  0.45522574    -0.72100
O632        O  0.07340412  0.54162396  0.49446292    -0.72100
O633        O  0.12433336  0.53199589  0.51942882    -0.72100
O634        O  0.12952942  0.97072173  0.43256383    -0.72100
O635        O  0.12719474  0.54089773  0.43813471    -0.72000
O636        O  0.12780227  0.96343481  0.51405309    -0.72200
V637        V  0.07665555  0.00482456  0.47609875     1.35200
V638        V  0.12979609  0.00634499  0.47735309     1.35200
C639        C  0.09511248  0.95172349  0.02834756     0.77200
C640        C  0.09824489  0.54250718  0.41705944     0.76500
C641        C  0.10040104  0.95073882  0.43076687     0.77100
C642        C  0.09879705  0.55838061  0.01795185     0.77100
O643        O  0.47894101  0.57243720  0.42229923    -0.72000
O644        O  0.01890308  0.57402519  0.51696110    -0.72300
O645        O  0.45399590  0.57321116  0.49043316    -0.72100
O646        O  0.04418080  0.57341487  0.44848486    -0.72100
O647        O  0.03515284  0.62503181  0.42485676    -0.72100
O648        O  0.46731559  0.63401388  0.01051163    -0.72100
O649        O  0.04116627  0.62573777  0.50699563    -0.72000
O650        O  0.45685383  0.62462329  0.43083647    -0.72200
V651        V  0.99906551  0.57391191  0.46950969     1.35200
V652        V  0.99884550  0.62739734  0.46891718     1.35200
C653        C  0.45548601  0.59422640  0.41170756     0.77200
C654        C  0.04710997  0.60390550  0.02369166     0.77300
C655        C  0.44844406  0.60440870  0.01498964     0.77100
C656        C  0.05376847  0.59491714  0.42363718     0.77100
O657        O  0.01879370  0.95245611  0.05069676    -0.72000
O658        O  0.48046026  0.55244367  0.05108364    -0.72300
O659        O  0.04576947  0.52829199  0.05206403    -0.72100
O660        O  0.45312485  0.97654719  0.04784547    -0.72100
O661        O  0.46051731  0.95521023  0.10238140    -0.72100
O662        O  0.03672953  0.55352955  0.10466790    -0.72100
O663        O  0.45820763  0.54584281  0.10540238    -0.72000
O664        O  0.03943968  0.96262997  0.10500765    -0.72200
V665        V  0.00109796  0.50720640  0.05448233     1.35200
V666        V  0.50169912  0.51046388  0.10974857     1.35200
C667        C  0.04215629  0.94348780  0.07394444     0.77200
C668        C  0.45662659  0.56306804  0.07311009     0.77300
C669        C  0.05498297  0.55359609  0.07305777     0.77100
C670        C  0.44308030  0.95294710  0.07037877     0.77100
O671        O  0.42556052  0.95783766  0.49615608    -0.72000
O672        O  0.42365277  0.54159607  0.44492915    -0.72300
O673        O  0.42139516  0.51855425  0.51424963    -0.72100
O674        O  0.42655852  0.97873674  0.42666206    -0.72100
O675        O  0.37508329  0.95576109  0.43633089    -0.72100
O676        O  0.37070787  0.54138627  0.50134526    -0.72100
O677        O  0.37297569  0.53132132  0.41985233    -0.72000
O678        O  0.37316534  0.96732509  0.51764281    -0.72200
V679        V  0.42258846  0.49706333  0.46758375     1.35200
V680        V  0.36945546  0.49716503  0.46568687     1.35200
C681        C  0.40049302  0.94464307  0.01454756     0.77200
C682        C  0.40294350  0.55004009  0.41888778     0.77300
C683        C  0.40492544  0.55248599  0.02671088     0.77100
C684        C  0.40559994  0.95393183  0.41775714     0.77100
O685        O  0.03961839  0.95610388  0.34281726    -0.72000
O686        O  0.46914065  0.54070936  0.33497160    -0.72300
O687        O  0.04734691  0.53100145  0.33739022    -0.72100
O688        O  0.46088630  0.96358264  0.34037017    -0.72100
O689        O  0.48217903  0.95526344  0.39473113    -0.72100
O690        O  0.02262181  0.54163549  0.38987568    -0.72100
O691        O  0.45630784  0.51748257  0.38742083    -0.72000
O692        O  0.04750797  0.98048899  0.39605771    -0.72200
V693        V  0.00340198  0.49644669  0.33349941     1.35200
V694        V  0.50138504  0.49657768  0.38876481     1.35200
C695        C  0.05751505  0.95581205  0.37463577     0.77200
C696        C  0.44858527  0.54202277  0.36504823     0.77300
C697        C  0.04785595  0.55015106  0.36854500     0.77100
C698        C  0.45866569  0.94541060  0.37201837     0.77100
O699        O  0.03725728  0.87706471  0.52361883    -0.72000
O700        O  0.47013113  0.87315334  0.43117388    -0.72300
O701        O  0.04795574  0.87527820  0.44272586    -0.72100
O702        O  0.45881431  0.87486641  0.51301518    -0.72100
O703        O  0.47969642  0.92717410  0.52286571    -0.72100
O704        O  0.02446906  0.92620634  0.43065874    -0.72100
O705        O  0.45780310  0.92470527  0.45327637    -0.72000
O706        O  0.04577281  0.92867617  0.49969113    -0.72200
V707        V  0.50350630  0.87282150  0.47774301     1.35200
V708        V  0.50189186  0.92614600  0.47659230     1.35200
C709        C  0.05186753  0.89900984  0.01883262     0.77200
C710        C  0.45042870  0.90249748  0.42818789     0.77300
C711        C  0.04945272  0.90498405  0.42278209     0.77100
C712        C  0.45240589  0.89970566  0.02457814     0.77100
C713        C  0.11010400  0.65355763  0.12389112    -0.09400
C714        C  0.14838069  0.65246187  0.12021732     0.06800
C715        C  0.16307537  0.62893044  0.09217954    -0.03200
C716        C  0.14014835  0.60817856  0.06889311    -0.07600
C717        C  0.10197044  0.60850555  0.07328546     0.05900
C718        C  0.08722991  0.63197268  0.10132703    -0.02700
Br719      Br  0.03606201  0.63654815  0.11102885    -0.02400
H720        H  0.09703815  0.67068660  0.14468072     0.09800
H721        H  0.15312375  0.59173210  0.04732157     0.07800
Br722      Br  0.21420592  0.62376173  0.08268731    -0.02800
C723        C  0.38296508  0.66523000  0.10817900    -0.09400
C724        C  0.34996971  0.64993315  0.12059961     0.06800
C725        C  0.34181863  0.61396329  0.10788614    -0.03200
C726        C  0.36697390  0.59440562  0.08584598    -0.07600
C727        C  0.40048106  0.60928600  0.07404383     0.05900
C728        C  0.40853272  0.64534538  0.08682256    -0.02700
Br729      Br  0.45355360  0.67061406  0.07966118    -0.02400
H730        H  0.38955576  0.69308085  0.11579945     0.09800
H731        H  0.35975431  0.56669334  0.07814556     0.07800
Br732      Br  0.29642045  0.58905725  0.11481816    -0.02800
C733        C  0.11618293  0.84057480  0.11051065    -0.09400
C734        C  0.15081597  0.85411209  0.11999237     0.06800
C735        C  0.15973932  0.88971156  0.10682277    -0.03200
C736        C  0.13410030  0.91034989  0.08659590    -0.07600
C737        C  0.09906810  0.89706253  0.07773316     0.05900
C738        C  0.09006339  0.86192641  0.09186017    -0.02700
Br739      Br  0.04271172  0.84058431  0.09069033    -0.02400
H740        H  0.10860766  0.81322327  0.11843209     0.09800
H741        H  0.14215569  0.93752388  0.07806461     0.07800
Br742      Br  0.20655114  0.91265279  0.11114320    -0.02800
C743        C  0.14018696  0.60012009  0.37369651    -0.09400
C744        C  0.10201439  0.59965224  0.36869086     0.06800
C745        C  0.08688341  0.62555097  0.34335094    -0.03200
C746        C  0.10944300  0.65016721  0.32387303    -0.07600
C747        C  0.14757411  0.65095019  0.32921848     0.05900
C748        C  0.16262293  0.62545906  0.35504344    -0.02700
Br749      Br  0.21389084  0.62273116  0.36607789    -0.02400
H750        H  0.15334116  0.58122195  0.39261542     0.09800
H751        H  0.09634270  0.66860946  0.30432858     0.07800
Br752      Br  0.03548349  0.62902121  0.33306976    -0.02800
C753        C  0.38882438  0.85420104  0.12576836    -0.09400
C754        C  0.35112401  0.85152698  0.11945110     0.06800
C755        C  0.33637766  0.87256217  0.08923261    -0.03200
C756        C  0.35904576  0.89430317  0.06643896    -0.07600
C757        C  0.39679901  0.89696702  0.07295121     0.05900
C758        C  0.41133011  0.87617983  0.10327151    -0.02700
Br759      Br  0.46169292  0.87581096  0.11671863    -0.02400
H760        H  0.40151867  0.83967857  0.14884960     0.09800
H761        H  0.34647703  0.90895064  0.04332275     0.07800
Br762      Br  0.28577292  0.87316726  0.07579997    -0.02800
C763        C  0.14307291  0.90333826  0.37709790    -0.09400
C764        C  0.10472230  0.90108303  0.37480073     0.06800
C765        C  0.08959403  0.87485722  0.34990167    -0.03200
C766        C  0.11230958  0.85205864  0.32861538    -0.07600
C767        C  0.15061246  0.85499038  0.32988909     0.05900
C768        C  0.16583170  0.88110823  0.35490077    -0.02700
Br769      Br  0.21752394  0.88753548  0.36141242    -0.02400
H770        H  0.15614998  0.92248104  0.39591081     0.09800
H771        H  0.09896023  0.83206141  0.31108940     0.07800
Br772      Br  0.03799881  0.86728601  0.34361909    -0.02800
C773        C  0.36461010  0.61869795  0.30913700    -0.09400
C774        C  0.35084963  0.64945707  0.32875296     0.06800
C775        C  0.36333400  0.65487079  0.36658103    -0.03200
C776        C  0.38520243  0.62854208  0.38411012    -0.07600
C777        C  0.39925057  0.59815454  0.36445429     0.05900
C778        C  0.38786130  0.59313925  0.32620057    -0.02700
Br779      Br  0.39854916  0.55146671  0.29488570    -0.02400
H780        H  0.35728676  0.61412151  0.27969837     0.09800
H781        H  0.39220573  0.63267809  0.41368163     0.07800
Br782      Br  0.35721427  0.69816603  0.39652491    -0.02800
C783        C  0.40338124  0.85977969  0.37412653    -0.09400
C784        C  0.40268661  0.89817703  0.37041263     0.06800
C785        C  0.37689878  0.91324697  0.34508375    -0.03200
C786        C  0.35209523  0.89072721  0.32605632    -0.07600
C787        C  0.35284420  0.85232255  0.32942776     0.05900
C788        C  0.37949104  0.83710134  0.35374448    -0.02700
Br789      Br  0.38504261  0.78549583  0.36115363    -0.02400
H790        H  0.42259170  0.84661141  0.39275696     0.09800
H791        H  0.33256532  0.90426703  0.30822145     0.07800
Br792      Br  0.37287821  0.96459808  0.33500397    -0.02800
O793        O  0.28028142  0.79343393  0.85280108    -0.72000
O794        O  0.21243732  0.70403828  0.85111691    -0.72300
O795        O  0.29041841  0.71454632  0.85272834    -0.72100
O796        O  0.20204003  0.78235715  0.85116578    -0.72100
O797        O  0.22556903  0.79267600  0.79795676    -0.72100
O798        O  0.26992055  0.70385712  0.79871329    -0.72100
O799        O  0.20362759  0.72611687  0.79714484    -0.72000
O800        O  0.29224621  0.77082274  0.79964940    -0.72200
V801        V  0.24631508  0.74857095  0.85432385     1.35200
V802        V  0.24782817  0.74840805  0.79890558     1.35200
C803        C  0.29989969  0.79558313  0.82206371     0.77200
C804        C  0.19454031  0.70182953  0.81934783     0.77300
C805        C  0.29374176  0.69554795  0.82169452     0.77100
C806        C  0.20069530  0.80091568  0.81987304     0.77100
O807        O  0.32318156  0.79464869  0.74243580    -0.72000
O808        O  0.32635716  0.70550763  0.69721087    -0.72300
O809        O  0.32497732  0.72865657  0.76660338    -0.72100
O810        O  0.32451949  0.77192553  0.67344749    -0.72100
O811        O  0.37576114  0.79480731  0.68394529    -0.72100
O812        O  0.37713257  0.70756311  0.75671126    -0.72100
O813        O  0.37770209  0.71676317  0.67454775    -0.72000
O814        O  0.37513094  0.78648137  0.76550661    -0.72200
V815        V  0.32536938  0.75013505  0.71989579     1.35200
V816        V  0.37860992  0.75140687  0.72027543     1.35200
C817        C  0.34456384  0.80432302  0.76738063     0.77200
C818        C  0.34828377  0.69729493  0.67211093     0.77300
C819        C  0.34709873  0.70511246  0.77615453     0.77100
C820        C  0.34592730  0.79626561  0.66418514     0.77100
O821        O  0.26792814  0.82597929  0.76628242    -0.72000
O822        O  0.22680476  0.82493085  0.67248268    -0.72300
O823        O  0.29247218  0.82665748  0.69751011    -0.72100
O824        O  0.20261060  0.82444081  0.74065830    -0.72100
O825        O  0.21093465  0.87627373  0.76434660    -0.72100
O826        O  0.28133230  0.87788566  0.67392424    -0.72100
O827        O  0.20313844  0.87628317  0.68282540    -0.72000
O828        O  0.28950973  0.87776686  0.75567621    -0.72200
V829        V  0.24749057  0.82599754  0.71921384     1.35200
V830        V  0.24619925  0.87933807  0.71927084     1.35200
C831        C  0.29160079  0.84796997  0.77553885     0.77200
C832        C  0.20235303  0.84616347  0.66335923     0.77300
C833        C  0.30084633  0.84831159  0.67228313     0.77100
C834        C  0.19287761  0.84581131  0.76568666     0.77100
O835        O  0.17172258  0.76838610  0.76389476    -0.72000
O836        O  0.17507093  0.72607939  0.67040663    -0.72300
O837        O  0.17295563  0.79198219  0.69529428    -0.72100
O838        O  0.17372040  0.70249997  0.73879436    -0.72100
O839        O  0.12175059  0.71190951  0.76105861    -0.72100
O840        O  0.12218071  0.78116974  0.67085483    -0.72100
O841        O  0.12345911  0.70328915  0.67916613    -0.72000
O842        O  0.12035320  0.79020208  0.75210744    -0.72200
V843        V  0.17285440  0.74727809  0.71708103     1.35200
V844        V  0.11969390  0.74651428  0.71579004     1.35200
C845        C  0.14961922  0.79227507  0.77265826     0.77200
C846        C  0.15383696  0.70196148  0.66021566     0.77300
C847        C  0.15156928  0.80072481  0.67001515     0.77100
C848        C  0.15183087  0.69335993  0.76338835     0.77100
O849        O  0.29597322  0.62200882  0.68234140    -0.72000
O850        O  0.20717602  0.61976712  0.75271492    -0.72300
O851        O  0.21799192  0.62023447  0.67107446    -0.72100
O852        O  0.28557558  0.62156549  0.76404744    -0.72100
O853        O  0.29477786  0.67355599  0.74144213    -0.72100
O854        O  0.20643747  0.67149171  0.69459350    -0.72100
O855        O  0.22844295  0.67166897  0.76422820    -0.72000
O856        O  0.27264511  0.67340984  0.67203869    -0.72200
V857        V  0.25176694  0.61863154  0.71757769     1.35200
V858        V  0.25055253  0.67198425  0.71807004     1.35200
C859        C  0.29725503  0.65219727  0.66312878     0.77200
C860        C  0.20443563  0.64966458  0.77246449     0.77300
C861        C  0.19863077  0.64989005  0.66899560     0.77100
C862        C  0.30367323  0.65201270  0.76661328     0.77100
O863        O  0.21576587  0.79367684  0.58441213    -0.72000
O864        O  0.28623649  0.70607692  0.58486232    -0.72300
O865        O  0.20742575  0.71475704  0.58379383    -0.72100
O866        O  0.29431575  0.78460407  0.58599849    -0.72100
O867        O  0.27005711  0.79461620  0.63889012    -0.72100
O868        O  0.23024398  0.70352618  0.63686712    -0.72100
O869        O  0.29530803  0.72876897  0.63865393    -0.72000
O870        O  0.20453023  0.76975018  0.63687418    -0.72200
V871        V  0.25097164  0.74975406  0.58222872     1.35200
V872        V  0.24997381  0.74921493  0.63746055     1.35200
C873        C  0.19600500  0.79466214  0.61508539     0.77200
C874        C  0.30474690  0.70454170  0.61633692     0.77300
C875        C  0.20620949  0.69482174  0.61430689     0.77100
C876        C  0.29469070  0.80370105  0.61717201     0.77100
C877        C  0.32291852  0.82715832  0.79977070    -0.02700
C878        C  0.42504942  0.92083969  0.88784531    -0.02700
C879        C  0.32624651  0.67347731  0.79990211    -0.02700
C880        C  0.42533703  0.57546509  0.88839514    -0.02700
C881        C  0.16992329  0.82377501  0.79736295    -0.02700
C882        C  0.07798754  0.92004391  0.89240750    -0.02700
C883        C  0.32455896  0.82753230  0.64000456    -0.02700
C884        C  0.42387622  0.92671019  0.55461501    -0.02700
C885        C  0.17265669  0.67036054  0.79616204    -0.02700
C886        C  0.07857229  0.57465594  0.88959089    -0.02700
C887        C  0.17231195  0.82506964  0.63833651    -0.02700
C888        C  0.07698229  0.92997995  0.55747158    -0.02700
C889        C  0.32787047  0.67374619  0.63913264    -0.02700
C890        C  0.42049830  0.57437598  0.54682539    -0.02700
C891        C  0.17566802  0.67087312  0.63623386    -0.02700
C892        C  0.07279648  0.57478803  0.55185548    -0.02700
O893        O  0.07373282  0.97577159  0.01833667    -0.72000
O894        O  0.07733778  0.52136170  0.92590179    -0.72300
O895        O  0.07630698  0.95235968  0.94983778    -0.72100
O896        O  0.07724387  0.54855261  0.99327440    -0.72100
O897        O  0.12838890  0.53894296  0.01741940    -0.72100
O898        O  0.12829611  0.96234511  0.92807398    -0.72100
O899        O  0.12869723  0.54420813  0.93575194    -0.72000
O900        O  0.12565575  0.95336293  0.00974081    -0.72200
V901        V  0.07612770  0.99717706  0.97182996     1.35200
V902        V  0.12926113  0.99702116  0.97378995     1.35200
C903        C  0.09763614  0.96130019  0.53319529     0.77200
C904        C  0.09918634  0.54475800  0.91554844     0.76500
C905        C  0.09851476  0.94338831  0.92537277     0.77100
C906        C  0.09427221  0.55070715  0.52011561     0.77100
O907        O  0.48041078  0.57652889  0.92225933    -0.72000
O908        O  0.02281174  0.58206088  0.01568786    -0.72300
O909        O  0.45697584  0.58128575  0.99114798    -0.72100
O910        O  0.04611214  0.57755623  0.94670459    -0.72100
O911        O  0.03747956  0.62818527  0.92070919    -0.72100
O912        O  0.46237400  0.62555475  0.51287630    -0.72100
O913        O  0.04575473  0.63271234  0.00224304    -0.72000
O914        O  0.45907645  0.62920077  0.92872068    -0.72200
V915        V  0.00162468  0.57995243  0.96889586     1.35200
V916        V  0.00234074  0.63322184  0.96542052     1.35200
C917        C  0.45685271  0.59795551  0.91115262     0.77200
C918        C  0.04245660  0.59590113  0.52687490     0.77300
C919        C  0.44414975  0.59524436  0.51479767     0.77100
C920        C  0.05558692  0.59775962  0.92062513     0.77100
O921        O  0.02088601  0.96041729  0.55636271    -0.72000
O922        O  0.47574231  0.54206017  0.54868421    -0.72300
O923        O  0.04199142  0.51854444  0.55175492    -0.72100
O924        O  0.45442719  0.98299093  0.55366235    -0.72100
O925        O  0.46353495  0.96279766  0.60813784    -0.72100
O926        O  0.02978343  0.54125381  0.60446198    -0.72100
O927        O  0.45149873  0.53258445  0.60163347    -0.72000
O928        O  0.04227280  0.97279644  0.60979221    -0.72200
V929        V  0.99721102  0.49717301  0.55036419     1.35200
V930        V  0.49509882  0.49758240  0.60575859     1.35200
C931        C  0.04507023  0.95288785  0.57927075     0.77200
C932        C  0.45078326  0.55111703  0.57020384     0.77300
C933        C  0.04974143  0.54326727  0.57407882     0.77100
C934        C  0.44540251  0.95937353  0.57667771     0.77100
O935        O  0.42281084  0.95307437  0.99001852    -0.72000
O936        O  0.42604724  0.54695215  0.94815219    -0.72300
O937        O  0.42654206  0.52789398  0.01875105    -0.72100
O938        O  0.42539239  0.97606787  0.92127419    -0.72100
O939        O  0.37323315  0.95427625  0.93004384    -0.72100
O940        O  0.37490435  0.54968245  0.00738338    -0.72100
O941        O  0.37431566  0.53601376  0.92604573    -0.72000
O942        O  0.37094218  0.96408180  0.01178271    -0.72200
V943        V  0.42563817  0.50373858  0.97364309     1.35200
V944        V  0.37232807  0.50393442  0.97380882     1.35200
C945        C  0.40346322  0.94914163  0.52081885     0.77200
C946        C  0.40434733  0.55440612  0.92261298     0.77300
C947        C  0.39974331  0.54302907  0.52234846     0.77100
C948        C  0.40381256  0.95210503  0.91160079     0.77100
O949        O  0.03824915  0.95259705  0.83721052    -0.72000
O950        O  0.46833014  0.54012733  0.83749407    -0.72300
O951        O  0.04634908  0.52978622  0.83815629    -0.72100
O952        O  0.45958431  0.96237049  0.83462334    -0.72100
O953        O  0.48077138  0.95182933  0.88855681    -0.72100
O954        O  0.02291483  0.54343974  0.89052650    -0.72100
O955        O  0.45643891  0.51972837  0.89141776    -0.72000
O956        O  0.04673261  0.97553998  0.89104409    -0.72200
V957        V  0.00209523  0.49552158  0.83749541     1.35200
V958        V  0.50140649  0.49857258  0.89272689     1.35200
C959        C  0.05605829  0.95104351  0.86906255     0.77200
C960        C  0.44847414  0.54319883  0.86794071     0.77300
C961        C  0.04771594  0.55053735  0.86811927     0.77100
C962        C  0.45682643  0.94335419  0.86569433     0.77100
O963        O  0.03297485  0.86918755  0.01600628    -0.72000
O964        O  0.46624767  0.86973262  0.92338891    -0.72300
O965        O  0.04398549  0.86914342  0.93499133    -0.72100
O966        O  0.45456901  0.86969269  0.00486444    -0.72100
O967        O  0.47700438  0.92103231  0.01626693    -0.72100
O968        O  0.02220023  0.92113447  0.92436997    -0.72100
O969        O  0.45574264  0.92135980  0.94649730    -0.72000
O970        O  0.04367261  0.92071011  0.99361987    -0.72200
V971        V  0.49939724  0.86718568  0.96985104     1.35200
V972        V  0.49962391  0.92052318  0.97021145     1.35200
C973        C  0.05496386  0.90771416  0.52514971     0.77200
C974        C  0.44752711  0.89975423  0.92105147     0.77300
C975        C  0.04640135  0.89927707  0.91583768     0.77100
C976        C  0.45591687  0.90526422  0.53201676     0.77100
C977        C  0.11856375  0.63330958  0.63099279    -0.09400
C978        C  0.15065199  0.64543656  0.61318343     0.06800
C979        C  0.15685473  0.63353682  0.57523929    -0.03200
C980        C  0.13093745  0.61186843  0.55660544    -0.07600
C981        C  0.09847788  0.60019764  0.57434398     0.05900
C982        C  0.09189249  0.61324380  0.61171324    -0.02700
Br983      Br  0.04659618  0.60992299  0.63822623    -0.02400
H984        H  0.11325695  0.64050724  0.66032896     0.09800
H985        H  0.13666902  0.60416772  0.52748869     0.07800
Br986      Br  0.20062018  0.64119056  0.54657397    -0.02800
C987        C  0.38985935  0.65040472  0.61624248    -0.09400
C988        C  0.35159049  0.64854369  0.61444658     0.06800
C989        C  0.33619087  0.62191022  0.59000617    -0.03200
C990        C  0.35850530  0.59781923  0.56948961    -0.07600
C991        C  0.39677274  0.59993514  0.57103759     0.05900
C992        C  0.41216745  0.62706655  0.59479158    -0.02700
Br993      Br  0.46356761  0.63426959  0.59992724    -0.02400
H994        H  0.40323300  0.67026675  0.63410317     0.09800
H995        H  0.34514789  0.57759888  0.55214576     0.07800
Br996      Br  0.28479376  0.61551609  0.58338971    -0.02800
C997        C  0.10962400  0.84973392  0.61937307    -0.09400
C998        C  0.14786292  0.85135492  0.61587283     0.06800
C999        C  0.16241805  0.88053937  0.59451656    -0.03200
C1000       C  0.13957614  0.90688385  0.57838147    -0.07600
C1001       C  0.10133971  0.90459435  0.58097555     0.05900
C1002       C  0.08678147  0.87559130  0.60247111    -0.02700
Br1003     Br  0.03588984  0.86915047  0.61090560    -0.02400
H1004       H  0.09649026  0.82851175  0.63531117     0.09800
H1005       H  0.15264685  0.92888545  0.56358372     0.07800
Br1006     Br  0.21335887  0.88781968  0.58686306    -0.02800
C1007       C  0.14111740  0.59611252  0.86632050    -0.09400
C1008       C  0.10273814  0.59831965  0.86414900     0.06800
C1009       C  0.08762382  0.62432723  0.83909793    -0.03200
C1010       C  0.11035751  0.64660937  0.81729826    -0.07600
C1011       C  0.14869932  0.64521179  0.82028255     0.05900
C1012       C  0.16384821  0.61961322  0.84581503    -0.02700
Br1013     Br  0.21540304  0.61471972  0.85457964    -0.02400
H1014       H  0.15438654  0.57654073  0.88444615     0.09800
H1015       H  0.09700777  0.66540721  0.79845139     0.07800
Br1016     Br  0.03602841  0.63160327  0.83274730    -0.02800
C1017       C  0.38202939  0.86464410  0.63340199    -0.09400
C1018       C  0.34900535  0.85349558  0.61700583     0.06800
C1019       C  0.34028773  0.86820636  0.58079718    -0.03200
C1020       C  0.36477782  0.89130775  0.56205056    -0.07600
C1021       C  0.39848073  0.90160406  0.57791477     0.05900
C1022       C  0.40710817  0.88662061  0.61403445    -0.02700
Br1023     Br  0.45228193  0.89213960  0.63998268    -0.02400
H1024       H  0.38903060  0.85582495  0.66172764     0.09800
H1025       H  0.35703510  0.90066952  0.53406371     0.07800
Br1026     Br  0.29530601  0.86138969  0.55434948    -0.02800
C1027       C  0.13969130  0.89543124  0.87107376    -0.09400
C1028       C  0.10143742  0.89476191  0.86797107     0.06800
C1029       C  0.08573666  0.86999728  0.84172679    -0.03200
C1030       C  0.10799213  0.84682755  0.82010370    -0.07600
C1031       C  0.14629252  0.84811581  0.82261868     0.05900
C1032       C  0.16196758  0.87315647  0.84857813    -0.02700
Br1033     Br  0.21369912  0.87870772  0.85573971    -0.02400
H1034       H  0.15313681  0.91354766  0.89073036     0.09800
H1035       H  0.09459613  0.82822379  0.80091198     0.07800
Br1036     Br  0.03400565  0.86549546  0.83376944    -0.02800
C1037       C  0.36498481  0.61627580  0.80692426    -0.09400
C1038       C  0.35182901  0.64871689  0.82375363     0.06800
C1039       C  0.36442276  0.65650550  0.86123297    -0.03200
C1040       C  0.38617857  0.63133093  0.88089891    -0.07600
C1041       C  0.39969001  0.59929628  0.86394867     0.05900
C1042       C  0.38814030  0.59181872  0.82601283    -0.02700
Br1043     Br  0.39898498  0.54854140  0.79721112    -0.02400
H1044       H  0.35752321  0.60958505  0.77796157     0.09800
H1045       H  0.39353094  0.63763290  0.90998194     0.07800
Br1046     Br  0.35735449  0.70108727  0.88863386    -0.02800
C1047       C  0.40031180  0.85861311  0.86665855    -0.09400
C1048       C  0.39953217  0.89700537  0.86355369     0.06800
C1049       C  0.37292549  0.91234698  0.83923211    -0.03200
C1050       C  0.34752761  0.88987645  0.82062329    -0.07600
C1051       C  0.34848990  0.85138296  0.82364469     0.05900
C1052       C  0.37589001  0.83615525  0.84694642    -0.02700
Br1053     Br  0.38237751  0.78469844  0.85355614    -0.02400
H1054       H  0.42012948  0.84507997  0.88423495     0.09800
H1055       H  0.32748975  0.90333736  0.80327228     0.07800
Br1056     Br  0.36891657  0.96392325  0.83007697    -0.02800
O1057       O  0.77954119  0.29553360  0.35278396    -0.72000
O1058       O  0.71125989  0.20663299  0.35198484    -0.72300
O1059       O  0.78947959  0.21675459  0.35398393    -0.72100
O1060       O  0.70150827  0.28493868  0.35072917    -0.72100
O1061       O  0.72531074  0.29415100  0.29735574    -0.72100
O1062       O  0.76915762  0.20517357  0.30014432    -0.72100
O1063       O  0.70304736  0.22781773  0.29751641    -0.72000
O1064       O  0.79174158  0.27208428  0.30004788    -0.72200
V1065       V  0.74543846  0.25093294  0.35473407     1.35200
V1066       V  0.74731702  0.24985037  0.29931300     1.35200
C1067       C  0.79928169  0.29712176  0.32213587     0.77200
C1068       C  0.69357805  0.20404342  0.32010618     0.77300
C1069       C  0.79291248  0.19722405  0.32331809     0.77100
C1070       C  0.70051078  0.30298723  0.31911675     0.77100
O1071       O  0.82309825  0.29518953  0.24285100    -0.72000
O1072       O  0.82647004  0.20562543  0.19874249    -0.72300
O1073       O  0.82443572  0.22946236  0.26768951    -0.72100
O1074       O  0.82525490  0.27206042  0.17411350    -0.72100
O1075       O  0.87651037  0.29477292  0.18488268    -0.72100
O1076       O  0.87674078  0.20829677  0.25873963    -0.72100
O1077       O  0.87804223  0.21646510  0.17643247    -0.72000
O1078       O  0.87492980  0.28725945  0.26639063    -0.72200
V1079       V  0.82544328  0.25054550  0.22079209     1.35200
V1080       V  0.87871019  0.25167081  0.22172336     1.35200
C1081       C  0.84435177  0.30509648  0.26779342     0.77200
C1082       C  0.84858311  0.19703545  0.17397225     0.77300
C1083       C  0.84648706  0.20607710  0.27784255     0.77100
C1084       C  0.84685406  0.29627502  0.16486701     0.77100
O1085       O  0.76791543  0.32733898  0.26593273    -0.72000
O1086       O  0.72767385  0.32560572  0.17177102    -0.72300
O1087       O  0.79320436  0.32722663  0.19741159    -0.72100
O1088       O  0.70290995  0.32591359  0.23977325    -0.72100
O1089       O  0.71144186  0.37786935  0.26307236    -0.72100
O1090       O  0.78242729  0.37821988  0.17311537    -0.72100
O1091       O  0.70404002  0.37704707  0.18146938    -0.72000
O1092       O  0.79004904  0.37880241  0.25488377    -0.72200
V1093       V  0.74797434  0.32699742  0.21868160     1.35200
V1094       V  0.74696863  0.38030698  0.21816693     1.35200
C1095       C  0.79169746  0.34919419  0.27510639     0.77200
C1096       C  0.70320817  0.34670105  0.16236941     0.77300
C1097       C  0.80188449  0.34858028  0.17202769     0.77100
C1098       C  0.69320287  0.34752211  0.26458018     0.77100
O1099       O  0.67152807  0.26985374  0.26370057    -0.72000
O1100       O  0.67508118  0.22667390  0.17070767    -0.72300
O1101       O  0.67355261  0.29264925  0.19496359    -0.72100
O1102       O  0.67297890  0.20353586  0.23938574    -0.72100
O1103       O  0.62113281  0.21386057  0.26147840    -0.72100
O1104       O  0.62281786  0.28182243  0.17028164    -0.72100
O1105       O  0.62346471  0.20400030  0.17960902    -0.72000
O1106       O  0.62049938  0.29203938  0.25117428    -0.72200
V1107       V  0.67280945  0.24818299  0.21720997     1.35200
V1108       V  0.61969438  0.24781147  0.21559747     1.35200
C1109       C  0.64966297  0.29413868  0.27187297     0.77200
C1110       C  0.65390839  0.20243303  0.16075279     0.77300
C1111       C  0.65230354  0.30123375  0.16952277     0.77100
C1112       C  0.65099843  0.19501795  0.26414413     0.77100
O1113       O  0.79569930  0.12207587  0.18484387    -0.72000
O1114       O  0.70630228  0.12111858  0.25469260    -0.72300
O1115       O  0.71770075  0.12063130  0.17311109    -0.72100
O1116       O  0.78465922  0.12269322  0.26652279    -0.72100
O1117       O  0.79431720  0.17431944  0.24322356    -0.72100
O1118       O  0.70630556  0.17226145  0.19585974    -0.72100
O1119       O  0.72767726  0.17307258  0.26560623    -0.72000
O1120       O  0.77275465  0.17343523  0.17366695    -0.72200
V1121       V  0.75116286  0.11937204  0.21984760     1.35200
V1122       V  0.75024304  0.17272270  0.21960490     1.35200
C1123       C  0.79732921  0.15199735  0.16517888     0.77200
C1124       C  0.70351763  0.15125521  0.27404677     0.77300
C1125       C  0.69854781  0.15038434  0.17050824     0.77100
C1126       C  0.80289989  0.15306899  0.26877862     0.77100
O1127       O  0.71685646  0.29306466  0.08447848    -0.72000
O1128       O  0.78706172  0.20532487  0.08637272    -0.72300
O1129       O  0.70838557  0.21438702  0.08486407    -0.72100
O1130       O  0.79556869  0.28390453  0.08650552    -0.72100
O1131       O  0.77117422  0.29469216  0.13909820    -0.72100
O1132       O  0.73070335  0.20376580  0.13832291    -0.72100
O1133       O  0.79600804  0.22852409  0.13994234    -0.72000
O1134       O  0.70549651  0.26995282  0.13731395    -0.72200
V1135       V  0.75203416  0.24913143  0.08305058     1.35200
V1136       V  0.75082592  0.24929571  0.13829459     1.35200
C1137       C  0.69692571  0.29444854  0.11502493     0.77200
C1138       C  0.80538858  0.20398490  0.11795978     0.77300
C1139       C  0.70685928  0.19482209  0.11560297     0.77100
C1140       C  0.79593280  0.30349821  0.11736015     0.77100
C1141       C  0.82257383  0.32824013  0.29971614    -0.02700
C1142       C  0.92482994  0.42032162  0.38777718    -0.02700
C1143       C  0.82544095  0.17478973  0.30190808    -0.02700
C1144       C  0.92434179  0.07587283  0.38955844    -0.02700
C1145       C  0.67005566  0.32579499  0.29629985    -0.02700
C1146       C  0.57767804  0.42018970  0.39242563    -0.02700
C1147       C  0.82588076  0.32748704  0.14019037    -0.02700
C1148       C  0.92484137  0.43038557  0.05821514    -0.02700
C1149       C  0.67160887  0.17238958  0.29733203    -0.02700
C1150       C  0.57730721  0.07918061  0.39379537    -0.02700
C1151       C  0.67311714  0.32518638  0.13774330    -0.02700
C1152       C  0.57761967  0.42999771  0.05708329    -0.02700
C1153       C  0.82827148  0.17323133  0.14110848    -0.02700
C1154       C  0.92177611  0.07553803  0.04688546    -0.02700
C1155       C  0.67598321  0.17111232  0.13732647    -0.02700
C1156       C  0.57414330  0.07472949  0.05181328    -0.02700
O1157       O  0.57281988  0.47542685  0.51845149    -0.72000
O1158       O  0.57685731  0.02492794  0.42897334    -0.72300
O1159       O  0.57561735  0.45233606  0.44986601    -0.72100
O1160       O  0.57413656  0.05000940  0.49719936    -0.72100
O1161       O  0.62550924  0.04204338  0.52186954    -0.72100
O1162       O  0.62764068  0.46260743  0.42836654    -0.72100
O1163       O  0.62733561  0.04899634  0.44044674    -0.72000
O1164       O  0.62497594  0.45346843  0.51005856    -0.72200
V1165       V  0.57508436  0.49699502  0.47205218     1.35200
V1166       V  0.62825942  0.49719578  0.47410129     1.35200
C1167       C  0.59843035  0.46003342  0.03144024     0.77200
C1168       C  0.59820095  0.04922115  0.41965020     0.76500
C1169       C  0.59795879  0.44355021  0.42548662     0.77100
C1170       C  0.59564892  0.05070995  0.01998387     0.77100
O1171       O  0.97888636  0.07758204  0.42464683    -0.72000
O1172       O  0.51908444  0.08232557  0.51937715    -0.72300
O1173       O  0.95415101  0.07941804  0.49288424    -0.72100
O1174       O  0.54439722  0.08060627  0.45070764    -0.72100
O1175       O  0.53391424  0.13104793  0.42527797    -0.72100
O1176       O  0.96426551  0.12645036  0.01300962    -0.72100
O1177       O  0.54074923  0.13385973  0.50759721    -0.72000
O1178       O  0.95557361  0.12931981  0.43219780    -0.72200
V1179       V  0.49920790  0.08055260  0.47182873     1.35200
V1180       V  0.49795553  0.13386910  0.46979758     1.35200
C1181       C  0.95475752  0.09850417  0.41372331     0.77200
C1182       C  0.54399943  0.09612293  0.02678616     0.77300
C1183       C  0.94559705  0.09638855  0.01483464     0.77100
C1184       C  0.55325430  0.10135404  0.42486786     0.77100
O1185       O  0.52213100  0.46191674  0.05680185    -0.72000
O1186       O  0.97662195  0.04266055  0.04836993    -0.72300
O1187       O  0.54259479  0.01895516  0.05113350    -0.72100
O1188       O  0.95591905  0.48646141  0.05595272    -0.72100
O1189       O  0.96670694  0.46679505  0.11014503    -0.72100
O1190       O  0.53101552  0.04131651  0.10421069    -0.72100
O1191       O  0.95265547  0.03362325  0.10156990    -0.72000
O1192       O  0.54551704  0.47514868  0.10911451    -0.72200
V1193       V  0.49780572  0.99766136  0.05010903     1.35200
V1194       V  0.99586354  0.99816527  0.10558651     1.35200
C1195       C  0.54686088  0.45434904  0.07912474     0.77200
C1196       C  0.95195640  0.05207620  0.07009692     0.77300
C1197       C  0.55078617  0.04331749  0.07371896     0.77100
C1198       C  0.94744578  0.46306896  0.07941904     0.77100
O1199       O  0.92243503  0.45240384  0.48989585    -0.72000
O1200       O  0.92417221  0.04589371  0.44843828    -0.72300
O1201       O  0.92309607  0.02449783  0.51832962    -0.72100
O1202       O  0.92483740  0.47539549  0.42130305    -0.72100
O1203       O  0.87283857  0.45312696  0.43001271    -0.72100
O1204       O  0.87167250  0.04573851  0.50564251    -0.72100
O1205       O  0.87353228  0.03393162  0.42419171    -0.72000
O1206       O  0.87047078  0.46299486  0.51164652    -0.72200
V1207       V  0.92429651  0.00179745  0.47233207     1.35200
V1208       V  0.87112078  0.00063549  0.47095359     1.35200
C1209       C  0.90445891  0.45284325  0.02429126     0.77200
C1210       C  0.90303876  0.05336904  0.42240897     0.77300
C1211       C  0.90095431  0.04419825  0.02231620     0.77100
C1212       C  0.90344005  0.45131036  0.41159495     0.77100
O1213       O  0.53784513  0.45247842  0.33717018    -0.72000
O1214       O  0.96912142  0.04277088  0.33865644    -0.72300
O1215       O  0.54724716  0.03471936  0.34084302    -0.72100
O1216       O  0.95916706  0.46182652  0.33448688    -0.72100
O1217       O  0.98037596  0.45146519  0.38845978    -0.72100
O1218       O  0.52282174  0.04607107  0.39341568    -0.72100
O1219       O  0.95703748  0.02096889  0.39196959    -0.72000
O1220       O  0.54616130  0.47554597  0.39096015    -0.72200
V1221       V  0.50419959  0.99917789  0.33823667     1.35200
V1222       V  0.00240165  0.00070997  0.39357800     1.35200
C1223       C  0.55562195  0.45106182  0.36904393     0.77200
C1224       C  0.94876582  0.04469151  0.36883502     0.77300
C1225       C  0.54755704  0.05456613  0.37148611     0.77100
C1226       C  0.95647623  0.44289174  0.36561101     0.77100
O1227       O  0.53249831  0.36892210  0.51575865    -0.72000
O1228       O  0.96615546  0.36926389  0.42304969    -0.72300
O1229       O  0.54388172  0.36898294  0.43484279    -0.72100
O1230       O  0.95431827  0.36918172  0.50446156    -0.72100
O1231       O  0.97672859  0.42053965  0.51598856    -0.72100
O1232       O  0.52183929  0.42083710  0.42417973    -0.72100
O1233       O  0.95542546  0.42077460  0.44634420    -0.72000
O1234       O  0.54321875  0.42042921  0.49351262    -0.72200
V1235       V  0.99918622  0.36681168  0.46955294     1.35200
V1236       V  0.99927346  0.42012913  0.46999795     1.35200
C1237       C  0.55429655  0.40754726  0.02596127     0.77200
C1238       C  0.94731574  0.39920137  0.42084943     0.77300
C1239       C  0.54618617  0.39914351  0.41571617     0.77100
C1240       C  0.95579690  0.40791900  0.03527380     0.77100
C1241       C  0.61923247  0.13308526  0.13174247    -0.09400
C1242       C  0.65128460  0.14550643  0.11408164     0.06800
C1243       C  0.65768074  0.13379928  0.07608420    -0.03200
C1244       C  0.63206071  0.11189221  0.05732510    -0.07600
C1245       C  0.59962753  0.09994085  0.07482729     0.05900
C1246       C  0.59279248  0.11281120  0.11228136    -0.02700
Br1247     Br  0.54742558  0.10920241  0.13872580    -0.02400
H1248       H  0.61373544  0.14036158  0.16101022     0.09800
H1249       H  0.63793457  0.10432519  0.02817623     0.07800
Br1250     Br  0.70117719  0.14231177  0.04720901    -0.02800
C1251       C  0.89050006  0.15049620  0.11777050    -0.09400
C1252       C  0.85220966  0.14806741  0.11639694     0.06800
C1253       C  0.83704347  0.12149774  0.09171036    -0.03200
C1254       C  0.85959586  0.09808298  0.07054233    -0.07600
C1255       C  0.89787519  0.10081076  0.07152828     0.05900
C1256       C  0.91301621  0.12791136  0.09556187    -0.02700
Br1257     Br  0.96433028  0.13626799  0.09997681    -0.02400
H1258       H  0.90370485  0.17035010  0.13570643     0.09800
H1259       H  0.84635091  0.07782667  0.05307059     0.07800
Br1260     Br  0.78564466  0.11454560  0.08535842    -0.02800
C1261       C  0.61028553  0.35119102  0.12079329    -0.09400
C1262       C  0.64840629  0.35113192  0.11525765     0.06800
C1263       C  0.66299500  0.37861952  0.09177932    -0.03200
C1264       C  0.64037247  0.40528365  0.07592803    -0.07600
C1265       C  0.60214765  0.40460814  0.08042234     0.05900
C1266       C  0.58748264  0.37689223  0.10361575    -0.02700
Br1267     Br  0.53648857  0.37189325  0.11365273    -0.02400
H1268       H  0.59709598  0.33141692  0.13869987     0.09800
H1269       H  0.65371613  0.42615517  0.05958916     0.07800
Br1270     Br  0.71381038  0.38246970  0.08058538    -0.02800
C1271       C  0.63975605  0.10148957  0.37104220    -0.09400
C1272       C  0.60139524  0.10307624  0.36834725     0.06800
C1273       C  0.58628178  0.12751058  0.34157060    -0.03200
C1274       C  0.60906129  0.14890526  0.31868776    -0.07600
C1275       C  0.64743264  0.14792281  0.32209011     0.05900
C1276       C  0.66249244  0.12369724  0.34905098    -0.02700
Br1277     Br  0.71406783  0.11851163  0.35732400    -0.02400
H1278       H  0.65306135  0.08312459  0.39048496     0.09800
H1279       H  0.59585364  0.16639342  0.29846190     0.07800
Br1280     Br  0.53465557  0.13299498  0.33361470    -0.02800
C1281       C  0.88267202  0.36639690  0.13563172    -0.09400
C1282       C  0.85073850  0.35382314  0.11779174     0.06800
C1283       C  0.84288115  0.36841129  0.08129689    -0.03200
C1284       C  0.86686438  0.39306186  0.06393519    -0.07600
C1285       C  0.89926101  0.40515360  0.08136204     0.05900
C1286       C  0.90732714  0.39010894  0.11764747    -0.02700
Br1287     Br  0.95127948  0.39801198  0.14547115    -0.02400
H1288       H  0.88907180  0.35740719  0.16407225     0.09800
H1289       H  0.85988239  0.40220693  0.03563286     0.07800
Br1290     Br  0.79975925  0.35913135  0.05236103    -0.02800
C1291       C  0.63962785  0.39665384  0.37064062    -0.09400
C1292       C  0.60135276  0.39534549  0.36786517     0.06800
C1293       C  0.58581923  0.37055376  0.34157534    -0.03200
C1294       C  0.60822658  0.34824641  0.31931243    -0.07600
C1295       C  0.64647703  0.35006330  0.32153083     0.05900
C1296       C  0.66205780  0.37491692  0.34775621    -0.02700
Br1297     Br  0.71378213  0.38052210  0.35517041    -0.02400
H1298       H  0.65294601  0.41472235  0.39041224     0.09800
H1299       H  0.59490401  0.32961155  0.30007213     0.07800
Br1300     Br  0.53413892  0.36434054  0.33471954    -0.02800
C1301       C  0.86495555  0.11811385  0.30823815    -0.09400
C1302       C  0.85094469  0.14989957  0.32571857     0.06800
C1303       C  0.86254864  0.15678790  0.36373278    -0.03200
C1304       C  0.88422995  0.13132133  0.38312112    -0.07600
C1305       C  0.89864992  0.09999274  0.36546711     0.05900
C1306       C  0.88790541  0.09336749  0.32717908    -0.02700
Br1307     Br  0.89936602  0.05056195  0.29797959    -0.02400
H1308       H  0.85815483  0.11208439  0.27892580     0.09800
H1309       H  0.89078607  0.13686559  0.41255585     0.07800
Br1310     Br  0.85465798  0.20071989  0.39212339    -0.02800
C1311       C  0.89971698  0.35846617  0.36677532    -0.09400
C1312       C  0.89928161  0.39682734  0.36355140     0.06800
C1313       C  0.87276756  0.41256590  0.33941412    -0.03200
C1314       C  0.84723269  0.39044394  0.32080600    -0.07600
C1315       C  0.84802474  0.35200629  0.32373927     0.05900
C1316       C  0.87508033  0.33632649  0.34712907    -0.02700
Br1317     Br  0.88070017  0.28470029  0.35402486    -0.02400
H1318       H  0.91933946  0.34474371  0.38444864     0.09800
H1319       H  0.82724012  0.40408433  0.30357943     0.07800
Br1320     Br  0.86882831  0.46419913  0.33059469    -0.02800
O1321       O  0.78048103  0.29619121  0.86003071    -0.72000
O1322       O  0.71174696  0.20760732  0.85673951    -0.72300
O1323       O  0.79020610  0.21741494  0.85962623    -0.72100
O1324       O  0.70232850  0.28617986  0.85698104    -0.72100
O1325       O  0.72674914  0.29643783  0.80415806    -0.72100
O1326       O  0.76969721  0.20684037  0.80566834    -0.72100
O1327       O  0.70354178  0.23027696  0.80299432    -0.72000
O1328       O  0.79284943  0.27369485  0.80685634    -0.72200
V1329       V  0.74611839  0.25178425  0.86075636     1.35200
V1330       V  0.74823047  0.25180012  0.80541337     1.35200
C1331       C  0.80045893  0.29821872  0.82958577     0.77200
C1332       C  0.69404777  0.20580892  0.82478200     0.77300
C1333       C  0.79356001  0.19838275  0.82858608     0.77100
C1334       C  0.70174964  0.30495628  0.82576784     0.77100
O1335       O  0.82535256  0.29768673  0.75044595    -0.72000
O1336       O  0.82885654  0.20854439  0.70494913    -0.72300
O1337       O  0.82599168  0.23171045  0.77420482    -0.72100
O1338       O  0.82814849  0.27502978  0.68134815    -0.72100
O1339       O  0.87883862  0.29814068  0.69376678    -0.72100
O1340       O  0.87807581  0.21000336  0.76499373    -0.72100
O1341       O  0.88032642  0.22000546  0.68292395    -0.72000
O1342       O  0.87665229  0.28873825  0.77481181    -0.72200
V1343       V  0.82760853  0.25323230  0.72769645     1.35200
V1344       V  0.88074178  0.25416551  0.72925942     1.35200
C1345       C  0.84626260  0.30691305  0.77605304     0.77200
C1346       C  0.85087902  0.20058363  0.67988044     0.77300
C1347       C  0.84761062  0.20776586  0.78370896     0.77100
C1348       C  0.84965071  0.29956418  0.67305105     0.77100
O1349       O  0.76984672  0.32942237  0.77330587    -0.72000
O1350       O  0.73120315  0.33051586  0.67812921    -0.72300
O1351       O  0.79597961  0.33056763  0.70524805    -0.72100
O1352       O  0.70500510  0.32952397  0.74628816    -0.72100
O1353       O  0.71410774  0.38060201  0.77123550    -0.72100
O1354       O  0.78583766  0.38200189  0.68175511    -0.72100
O1355       O  0.70728561  0.38126690  0.68972721    -0.72000
O1356       O  0.79260410  0.38093656  0.76367653    -0.72200
V1357       V  0.75047838  0.33039317  0.72575366     1.35200
V1358       V  0.74998583  0.38358911  0.72663373     1.35200
C1359       C  0.79366446  0.35096379  0.78333783     0.77200
C1360       C  0.70705871  0.35197291  0.66886999     0.77300
C1361       C  0.80502203  0.35216209  0.68022563     0.77100
C1362       C  0.69539417  0.35052243  0.77176637     0.77100
O1363       O  0.67375707  0.27337729  0.76859400    -0.72000
O1364       O  0.67772856  0.23145684  0.67517361    -0.72300
O1365       O  0.67678037  0.29726789  0.69995250    -0.72100
O1366       O  0.67452217  0.20744488  0.74362388    -0.72100
O1367       O  0.62229733  0.21736865  0.76481808    -0.72100
O1368       O  0.62557259  0.28853415  0.67544303    -0.72100
O1369       O  0.62540691  0.20992585  0.68251404    -0.72000
O1370       O  0.62265810  0.29585367  0.75653865    -0.72200
V1371       V  0.67507627  0.25242937  0.72184662     1.35200
V1372       V  0.62183710  0.25280132  0.71971571     1.35200
C1373       C  0.65170861  0.29730768  0.77739074     0.77200
C1374       C  0.65617930  0.20796730  0.66429611     0.77300
C1375       C  0.65561545  0.30718899  0.67483116     0.77100
C1376       C  0.65206011  0.19833398  0.76777646     0.77100
O1377       O  0.79693561  0.12613252  0.68866385    -0.72000
O1378       O  0.70710023  0.12429650  0.75751623    -0.72300
O1379       O  0.71910432  0.12522114  0.67587328    -0.72100
O1380       O  0.78528796  0.12539748  0.76975440    -0.72100
O1381       O  0.79474731  0.17784173  0.74809125    -0.72100
O1382       O  0.70746480  0.17633344  0.69957005    -0.72100
O1383       O  0.72827765  0.17616806  0.76952805    -0.72000
O1384       O  0.77444150  0.17792425  0.67846172    -0.72200
V1385       V  0.75211434  0.12305018  0.72298406     1.35200
V1386       V  0.75118871  0.17647312  0.72384198     1.35200
C1387       C  0.79899825  0.15647372  0.66986195     0.77200
C1388       C  0.70421091  0.15410619  0.77740514     0.77300
C1389       C  0.69998469  0.15502699  0.67362749     0.77100
C1390       C  0.80338018  0.15576986  0.77283810     0.77100
O1391       O  0.72095930  0.29896594  0.59044630    -0.72000
O1392       O  0.79022579  0.21071526  0.59168325    -0.72300
O1393       O  0.71141849  0.22020617  0.58894841    -0.72100
O1394       O  0.79888096  0.28915882  0.59350522    -0.72100
O1395       O  0.77433464  0.29813706  0.64666804    -0.72100
O1396       O  0.73295381  0.20815968  0.64234748    -0.72100
O1397       O  0.79823587  0.23256603  0.64611769    -0.72000
O1398       O  0.70838172  0.27493109  0.64257002    -0.72200
V1399       V  0.75546523  0.25468044  0.58866965     1.35200
V1400       V  0.75334920  0.25349833  0.64398426     1.35200
C1401       C  0.70082820  0.30014241  0.62078683     0.77200
C1402       C  0.80797036  0.20870617  0.62359952     0.77300
C1403       C  0.70922547  0.20007680  0.61926320     0.77100
C1404       C  0.79920911  0.30723883  0.62527846     0.77100
C1405       C  0.82413878  0.32961791  0.80812992    -0.02700
C1406       C  0.92462097  0.42271920  0.89801249    -0.02700
C1407       C  0.82604191  0.17624604  0.80647742    -0.02700
C1408       C  0.92602750  0.07404432  0.88699865    -0.02700
C1409       C  0.67169229  0.32828170  0.80285663    -0.02700
C1410       C  0.57739408  0.42187272  0.89827331    -0.02700
C1411       C  0.82885487  0.33075165  0.64842385    -0.02700
C1412       C  0.92070035  0.42088527  0.54753495    -0.02700
C1413       C  0.67221243  0.17463480  0.80089696    -0.02700
C1414       C  0.57912846  0.07368300  0.89160415    -0.02700
C1415       C  0.67733494  0.33112647  0.64321901    -0.02700
C1416       C  0.57315169  0.41997111  0.55235024    -0.02700
C1417       C  0.83033283  0.17763059  0.64640169    -0.02700
C1418       C  0.92133157  0.08094554  0.54977802    -0.02700
C1419       C  0.67789951  0.17659062  0.64053269    -0.02700
C1420       C  0.57333337  0.08428928  0.55382924    -0.02700
O1421       O  0.57683945  0.48379244  0.02132337    -0.72000
O1422       O  0.57758373  0.01835347  0.92504587    -0.72300
O1423       O  0.57684000  0.45689313  0.95397997    -0.72100
O1424       O  0.57483993  0.04192949  0.99415158    -0.72100
O1425       O  0.62559447  0.03179834  0.01923258    -0.72100
O1426       O  0.62814666  0.46589234  0.92993714    -0.72100
O1427       O  0.62846403  0.04078618  0.93774321    -0.72000
O1428       O  0.62808028  0.46055044  0.01137834    -0.72200
V1429       V  0.57748338  0.50268615  0.97363209     1.35200
V1430       V  0.63061421  0.50238966  0.97364894     1.35200
C1431       C  0.59435823  0.45150217  0.52847313     0.77200
C1432       C  0.59952065  0.04247089  0.91664177     0.76500
C1433       C  0.59839341  0.44679869  0.92936322     0.77100
C1434       C  0.59503852  0.06008923  0.52243158     0.77100
O1435       O  0.98032709  0.07336104  0.92211495    -0.72000
O1436       O  0.52019275  0.07450413  0.01686073    -0.72300
O1437       O  0.95516413  0.07437621  0.99028692    -0.72100
O1438       O  0.54557955  0.07372987  0.94822818    -0.72100
O1439       O  0.53685908  0.12540837  0.92460455    -0.72100
O1440       O  0.96189584  0.13228339  0.51418966    -0.72100
O1441       O  0.54305503  0.12593963  0.00684758    -0.72000
O1442       O  0.95848610  0.12559145  0.93091469    -0.72200
V1443       V  0.50039079  0.07459808  0.96936102     1.35200
V1444       V  0.50065429  0.12803588  0.96885944     1.35200
C1445       C  0.95688773  0.09523124  0.91171543     0.77200
C1446       C  0.54254247  0.10465629  0.52849399     0.77300
C1447       C  0.94421298  0.10168843  0.51698729     0.77100
C1448       C  0.55526485  0.09515317  0.92328475     0.77100
O1449       O  0.51818084  0.45194318  0.55096807    -0.72000
O1450       O  0.97677637  0.04942582  0.55163951    -0.72300
O1451       O  0.54300675  0.02762026  0.55450913    -0.72100
O1452       O  0.95269942  0.47598909  0.54787114    -0.72100
O1453       O  0.96024666  0.45423446  0.60229419    -0.72100
O1454       O  0.53130935  0.05097388  0.60710281    -0.72100
O1455       O  0.95336589  0.04104219  0.60526405    -0.72000
O1456       O  0.53897991  0.46236363  0.60514871    -0.72200
V1457       V  0.49883557  0.00506853  0.55457351     1.35200
V1458       V  0.99753970  0.00692672  0.60993601     1.35200
C1459       C  0.54160771  0.44306163  0.57415719     0.77200
C1460       C  0.95208201  0.05871578  0.57330330     0.77300
C1461       C  0.55076710  0.05273966  0.57641658     0.77100
C1462       C  0.94286967  0.45219207  0.57023486     0.77100
O1463       O  0.92636309  0.46057611  0.99901949    -0.72000
O1464       O  0.92496237  0.04238550  0.94488733    -0.72300
O1465       O  0.92245320  0.01955461  0.01419034    -0.72100
O1466       O  0.92612784  0.47937913  0.92877141    -0.72100
O1467       O  0.87419990  0.45823379  0.94028443    -0.72100
O1468       O  0.87184428  0.04263303  0.00142903    -0.72100
O1469       O  0.87404047  0.03268051  0.92002906    -0.72000
O1470       O  0.87453271  0.47162600  0.02126317    -0.72200
V1471       V  0.92339519  0.99782676  0.96759956     1.35200
V1472       V  0.87025016  0.99839199  0.96578037     1.35200
C1473       C  0.90019722  0.44385921  0.51442270     0.77200
C1474       C  0.90415035  0.05119876  0.91903167     0.77300
C1475       C  0.90092944  0.04861502  0.52619340     0.77100
C1476       C  0.90419992  0.45510131  0.92101291     0.77100
O1477       O  0.53630941  0.45161511  0.84254709    -0.72000
O1478       O  0.97014308  0.04128757  0.83513345    -0.72300
O1479       O  0.54812561  0.03100873  0.83736125    -0.72100
O1480       O  0.95778895  0.46129971  0.84174728    -0.72100
O1481       O  0.98010615  0.45375042  0.89581430    -0.72100
O1482       O  0.52372008  0.04169782  0.89006294    -0.72100
O1483       O  0.95717907  0.01819125  0.88760516    -0.72000
O1484       O  0.54597538  0.47721332  0.89482383    -0.72200
V1485       V  0.50403669  0.99674558  0.83360259     1.35200
V1486       V  0.00209547  0.99685390  0.88889241     1.35200
C1487       C  0.55483148  0.45166543  0.87396094     0.77200
C1488       C  0.94964603  0.04283709  0.86523794     0.77300
C1489       C  0.54885992  0.05009817  0.86853242     0.77100
C1490       C  0.95578900  0.44405529  0.87399506     0.77100
O1491       O  0.53594880  0.37726116  0.02562617    -0.72000
O1492       O  0.96658578  0.37281679  0.93493332    -0.72300
O1493       O  0.54470430  0.37300077  0.94444910    -0.72100
O1494       O  0.95747397  0.37694638  0.01713533    -0.72100
O1495       O  0.97968482  0.42912450  0.02478623    -0.72100
O1496       O  0.52218265  0.42409704  0.93140936    -0.72100
O1497       O  0.95607229  0.42513392  0.95594962    -0.72000
O1498       O  0.54507075  0.42806781  0.00013344    -0.72200
V1499       V  0.00106432  0.37275057  0.98071030     1.35200
V1500       V  0.00074171  0.42605248  0.97802030     1.35200
C1501       C  0.55131200  0.39874019  0.51874847     0.77200
C1502       C  0.94762258  0.40262297  0.93154962     0.77300
C1503       C  0.54639260  0.40200073  0.92344120     0.77100
C1504       C  0.95217248  0.39916080  0.52422344     0.77100
C1505       C  0.62043829  0.13995071  0.63455248    -0.09400
C1506       C  0.65266020  0.15187727  0.61697060     0.06800
C1507       C  0.65852664  0.14092632  0.57870332    -0.03200
C1508       C  0.63172760  0.12104382  0.55922381    -0.07600
C1509       C  0.59897269  0.10965781  0.57664780     0.05900
C1510       C  0.59314933  0.12120242  0.61479215    -0.02700
Br1511     Br  0.54826845  0.11803493  0.64225174    -0.02400
H1512       H  0.61558140  0.14637357  0.66417770     0.09800
H1513       H  0.63723071  0.11402889  0.52986179     0.07800
Br1514     Br  0.70334544  0.14659450  0.55125834    -0.02800
C1515       C  0.89171347  0.15606064  0.62064609    -0.09400
C1516       C  0.85353439  0.15265853  0.62105217     0.06800
C1517       C  0.83775156  0.12583470  0.59702137    -0.03200
C1518       C  0.85980055  0.10284851  0.57488937    -0.07600
C1519       C  0.89795753  0.10626432  0.57449823     0.05900
C1520       C  0.91367363  0.13377481  0.59764125    -0.02700
Br1521     Br  0.96505695  0.14301548  0.59988939    -0.02400
H1522       H  0.90512401  0.17648164  0.63771443     0.09800
H1523       H  0.84639753  0.08232720  0.55787817     0.07800
Br1524     Br  0.78625673  0.11775557  0.59286169    -0.02800
C1525       C  0.61971542  0.33930071  0.60569379    -0.09400
C1526       C  0.65248338  0.35492806  0.61814573     0.06800
C1527       C  0.65863167  0.39224023  0.60861420    -0.03200
C1528       C  0.63193912  0.41221472  0.58920816    -0.07600
C1529       C  0.59866288  0.39676958  0.57756504     0.05900
C1530       C  0.59231917  0.35982845  0.58813607    -0.02700
Br1531     Br  0.54657642  0.33509910  0.58596334    -0.02400
H1532       H  0.61432866  0.31074315  0.61125378     0.09800
H1533       H  0.63776052  0.44062846  0.58310860     0.07800
Br1534     Br  0.70309271  0.41880226  0.61605725    -0.02800
C1535       C  0.64131734  0.09951167  0.87147946    -0.09400
C1536       C  0.60307301  0.09909911  0.86715241     0.06800
C1537       C  0.58778925  0.12398376  0.84073941    -0.03200
C1538       C  0.61021675  0.14765817  0.81976065    -0.07600
C1539       C  0.64836899  0.14852937  0.82459204     0.05900
C1540       C  0.66365359  0.12385845  0.85120391    -0.02700
Br1541     Br  0.71511290  0.12104951  0.86132535    -0.02400
H1542       H  0.65454690  0.08132236  0.89113546     0.09800
H1543       H  0.59706197  0.16550100  0.79964292     0.07800
Br1544     Br  0.53632707  0.12725363  0.83087550    -0.02800
C1545       C  0.89041479  0.35415350  0.62580836    -0.09400
C1546       C  0.85223408  0.35486245  0.62280661     0.06800
C1547       C  0.83670209  0.37754867  0.59456764    -0.03200
C1548       C  0.85897636  0.39756976  0.57003062    -0.07600
C1549       C  0.89716382  0.39712864  0.57333329     0.05900
C1550       C  0.91261117  0.37502134  0.60204118    -0.02700
Br1551     Br  0.96385781  0.37134295  0.61121716    -0.02400
H1552       H  0.90381553  0.33767616  0.64690848     0.09800
H1553       H  0.84564260  0.41362735  0.54850928     0.07800
Br1554     Br  0.78531265  0.38226840  0.58627556    -0.02800
C1555       C  0.63955825  0.39771578  0.87772237    -0.09400
C1556       C  0.60128258  0.39636736  0.87451213     0.06800
C1557       C  0.58618483  0.37136944  0.84822156    -0.03200
C1558       C  0.60903892  0.34929150  0.82602964    -0.07600
C1559       C  0.64735873  0.35187502  0.82814643     0.05900
C1560       C  0.66237816  0.37670003  0.85464620    -0.02700
Br1561     Br  0.71391978  0.38363414  0.86197913    -0.02400
H1562       H  0.65278049  0.41532223  0.89793040     0.09800
H1563       H  0.59600936  0.33038272  0.80690119     0.07800
Br1564     Br  0.53456015  0.36514218  0.84106369    -0.02800
C1565       C  0.86547227  0.11941992  0.80908913    -0.09400
C1566       C  0.85161988  0.15029484  0.82846639     0.06800
C1567       C  0.86443339  0.15616509  0.86605486    -0.03200
C1568       C  0.88666697  0.13013548  0.88375003    -0.07600
C1569       C  0.90057632  0.09942609  0.86440636     0.05900
C1570       C  0.88903992  0.09415769  0.82621484    -0.02700
Br1571     Br  0.90029791  0.05267512  0.79482644    -0.02400
H1572       H  0.85818880  0.11458538  0.77969658     0.09800
H1573       H  0.89391012  0.13469151  0.91319424     0.07800
Br1574     Br  0.85727223  0.19963403  0.89538325    -0.02800
C1575       C  0.89980477  0.36047827  0.87742931    -0.09400
C1576       C  0.89865146  0.39886454  0.87461654     0.06800
C1577       C  0.87205307  0.41432167  0.85039026    -0.03200
C1578       C  0.84721676  0.39192572  0.83115562    -0.07600
C1579       C  0.84895069  0.35343772  0.83312393     0.05900
C1580       C  0.87598507  0.33803395  0.85681738    -0.02700
Br1581     Br  0.88265275  0.28643505  0.86262916    -0.02400
H1582       H  0.91966963  0.34712708  0.89518110     0.09800
H1583       H  0.82705935  0.40551499  0.81415352     0.07800
Br1584     Br  0.86726033  0.46595287  0.84177955    -0.02800
O1585       O  0.78403693  0.79693208  0.35944341    -0.72000
O1586       O  0.71342306  0.70966991  0.36000399    -0.72300
O1587       O  0.79192107  0.71805989  0.36015593    -0.72100
O1588       O  0.70550140  0.78855742  0.35909559    -0.72100
O1589       O  0.72896472  0.79771088  0.30563866    -0.72100
O1590       O  0.76966893  0.70704356  0.30703961    -0.72100
O1591       O  0.70404585  0.73188042  0.30632067    -0.72000
O1592       O  0.79449598  0.77322560  0.30638289    -0.72200
V1593       V  0.74872308  0.75330278  0.36212796     1.35200
V1594       V  0.74927686  0.75246001  0.30679983     1.35200
C1595       C  0.80326016  0.79795878  0.32838229     0.77200
C1596       C  0.69476009  0.70778069  0.32866411     0.77300
C1597       C  0.79394086  0.69847416  0.32939794     0.77100
C1598       C  0.70460459  0.80702866  0.32768648     0.77100
O1599       O  0.82622515  0.79570374  0.24829608    -0.72000
O1600       O  0.82559334  0.70587123  0.20419814    -0.72300
O1601       O  0.82530372  0.72997789  0.27303606    -0.72100
O1602       O  0.82662310  0.77194554  0.17938255    -0.72100
O1603       O  0.87823495  0.79361176  0.18994122    -0.72100
O1604       O  0.87684192  0.70701250  0.26334758    -0.72100
O1605       O  0.87732199  0.71479839  0.18129971    -0.72000
O1606       O  0.87776168  0.78568583  0.27155110    -0.72200
V1607       V  0.82652533  0.75086984  0.22620442     1.35200
V1608       V  0.87975271  0.75020430  0.22652806     1.35200
C1609       C  0.84789379  0.80465229  0.27331544     0.77200
C1610       C  0.84711540  0.69640792  0.17922427     0.77300
C1611       C  0.84672647  0.70586926  0.28271961     0.77100
C1612       C  0.84853603  0.79575433  0.17001460     0.77100
O1613       O  0.77197677  0.82854033  0.27212076    -0.72000
O1614       O  0.73043062  0.82907447  0.17838399    -0.72300
O1615       O  0.79617028  0.82825565  0.20322652    -0.72100
O1616       O  0.70651126  0.82965849  0.24744894    -0.72100
O1617       O  0.71707631  0.88114083  0.27083575    -0.72100
O1618       O  0.78634282  0.87955275  0.17923885    -0.72100
O1619       O  0.70794785  0.88058958  0.18955781    -0.72000
O1620       O  0.79526118  0.87954844  0.26101408    -0.72200
V1621       V  0.75124587  0.82930634  0.22526164     1.35200
V1622       V  0.75175709  0.88254826  0.22515594     1.35200
C1623       C  0.79634306  0.84986038  0.28116185     0.77200
C1624       C  0.70637717  0.85082621  0.16950534     0.77300
C1625       C  0.80496241  0.84935876  0.17762394     0.77100
C1626       C  0.69787724  0.85144043  0.27264170     0.77100
O1627       O  0.67467290  0.77494251  0.27170740    -0.72000
O1628       O  0.67412289  0.73177300  0.17890194    -0.72300
O1629       O  0.67552735  0.79784316  0.20276542    -0.72100
O1630       O  0.67317836  0.70873060  0.24785933    -0.72100
O1631       O  0.62199665  0.72026382  0.27103326    -0.72100
O1632       O  0.62372498  0.78908978  0.17984831    -0.72100
O1633       O  0.62230383  0.71056545  0.18956074    -0.72000
O1634       O  0.62367725  0.79829145  0.26081160    -0.72200
V1635       V  0.67385981  0.75332424  0.22533887     1.35200
V1636       V  0.62069343  0.75455863  0.22525708     1.35200
C1637       C  0.65334871  0.79943727  0.28071629     0.77200
C1638       C  0.65209821  0.70805685  0.16979572     0.77300
C1639       C  0.65397642  0.80736538  0.17788918     0.77100
C1640       C  0.65133965  0.70053083  0.27298482     0.77100
O1641       O  0.79240507  0.62370361  0.19139750    -0.72000
O1642       O  0.70423311  0.62509190  0.26237665    -0.72300
O1643       O  0.71393090  0.62419397  0.18041150    -0.72100
O1644       O  0.78244225  0.62463566  0.27256799    -0.72100
O1645       O  0.79279684  0.67610838  0.24901427    -0.72100
O1646       O  0.70397116  0.67589652  0.20347029    -0.72100
O1647       O  0.72688634  0.67678974  0.27248847    -0.72000
O1648       O  0.77014161  0.67506325  0.17956592    -0.72200
V1649       V  0.74818795  0.62212820  0.22668115     1.35200
V1650       V  0.74846727  0.67545198  0.22609786     1.35200
C1651       C  0.79424094  0.65311926  0.17099056     0.77200
C1652       C  0.70263097  0.65536185  0.28163156     0.77300
C1653       C  0.69526833  0.65434462  0.17820262     0.77100
C1654       C  0.80135828  0.65456479  0.27432103     0.77100
O1655       O  0.71691494  0.79610829  0.09174302    -0.72000
O1656       O  0.78454563  0.70660501  0.09269661    -0.72300
O1657       O  0.70610546  0.71754651  0.09214723    -0.72100
O1658       O  0.79505356  0.78491066  0.09237912    -0.72100
O1659       O  0.77238357  0.79576729  0.14596396    -0.72100
O1660       O  0.72827907  0.70715576  0.14584749    -0.72100
O1661       O  0.79465034  0.72933951  0.14633952    -0.72000
O1662       O  0.70586499  0.77387981  0.14517220    -0.72200
V1663       V  0.75066705  0.75123662  0.08984436     1.35200
V1664       V  0.75025915  0.75154810  0.14531182     1.35200
C1665       C  0.69781683  0.79838931  0.12277094     0.77200
C1666       C  0.80320977  0.70481835  0.12401678     0.77300
C1667       C  0.70392049  0.69896085  0.12346256     0.77100
C1668       C  0.79683531  0.80380845  0.12360172     0.77100
C1669       C  0.82706175  0.82839708  0.30557611    -0.02700
C1670       C  0.92754863  0.92258242  0.39464482    -0.02700
C1671       C  0.82522958  0.67532199  0.30686223    -0.02700
C1672       C  0.92477893  0.57292487  0.38689602    -0.02700
C1673       C  0.67446592  0.83045205  0.30494920    -0.02700
C1674       C  0.58043885  0.92607655  0.39865857    -0.02700
C1675       C  0.82768866  0.82722178  0.14540441    -0.02700
C1676       C  0.92079176  0.92144961  0.04777367    -0.02700
C1677       C  0.67174870  0.67678679  0.30568774    -0.02700
C1678       C  0.57788802  0.57369603  0.39208005    -0.02700
C1679       C  0.67543537  0.83014114  0.14512498    -0.02700
C1680       C  0.57379841  0.92037145  0.05231809    -0.02700
C1681       C  0.82552716  0.67344045  0.14653184    -0.02700
C1682       C  0.92584086  0.58516266  0.04937323    -0.02700
C1683       C  0.67268585  0.67623065  0.14567924    -0.02700
C1684       C  0.57787671  0.58347084  0.04904231    -0.02700
O1685       O  0.57557015  0.98461502  0.52313158    -0.72000
O1686       O  0.57633760  0.51836987  0.42541073    -0.72300
O1687       O  0.57813123  0.95952771  0.45522571    -0.72100
O1688       O  0.57340412  0.54162396  0.49446290    -0.72100
O1689       O  0.62433334  0.53199591  0.51942881    -0.72100
O1690       O  0.62952941  0.97072174  0.43256382    -0.72100
O1691       O  0.62719473  0.54089775  0.43813475    -0.72000
O1692       O  0.62780227  0.96343481  0.51405307    -0.72200
V1693       V  0.57665551  0.00482453  0.47609874     1.35200
V1694       V  0.62979606  0.00634501  0.47735309     1.35200
C1695       C  0.59511194  0.95172375  0.02834774     0.77200
C1696       C  0.59824487  0.54250717  0.41705947     0.76500
C1697       C  0.60040106  0.95073881  0.43076688     0.77100
C1698       C  0.59879694  0.55838061  0.01795187     0.77100
O1699       O  0.97894103  0.57243714  0.42229924    -0.72000
O1700       O  0.51890308  0.57402518  0.51696112    -0.72300
O1701       O  0.95399591  0.57321111  0.49043320    -0.72100
O1702       O  0.54418080  0.57341483  0.44848487    -0.72100
O1703       O  0.53515282  0.62503178  0.42485680    -0.72100
O1704       O  0.96731559  0.63401389  0.01051162    -0.72100
O1705       O  0.54116622  0.62573775  0.50699561    -0.72000
O1706       O  0.95685388  0.62462328  0.43083649    -0.72200
V1707       V  0.49906551  0.57391193  0.46950969     1.35200
V1708       V  0.49884547  0.62739734  0.46891719     1.35200
C1709       C  0.95548602  0.59422636  0.41170764     0.77200
C1710       C  0.54710981  0.60390563  0.02369148     0.77300
C1711       C  0.94844412  0.60440869  0.01498968     0.77100
C1712       C  0.55376846  0.59491711  0.42363722     0.77100
O1713       O  0.51879368  0.95245610  0.05069682    -0.72000
O1714       O  0.98046023  0.55244374  0.05108382    -0.72300
O1715       O  0.54576940  0.52829200  0.05206413    -0.72100
O1716       O  0.95312482  0.97654714  0.04784554    -0.72100
O1717       O  0.96051730  0.95521021  0.10238144    -0.72100
O1718       O  0.53672951  0.55352955  0.10466808    -0.72100
O1719       O  0.95820755  0.54584276  0.10540257    -0.72000
O1720       O  0.53943969  0.96263005  0.10500771    -0.72200
V1721       V  0.50109793  0.50720637  0.05448231     1.35200
V1722       V  0.00169918  0.51046387  0.10974861     1.35200
C1723       C  0.54215624  0.94348791  0.07394461     0.77200
C1724       C  0.95662652  0.56306806  0.07311038     0.77300
C1725       C  0.55498283  0.55359614  0.07305797     0.77100
C1726       C  0.94308031  0.95294704  0.07037882     0.77100
O1727       O  0.92556049  0.95783762  0.49615609    -0.72000
O1728       O  0.92365277  0.54159608  0.44492920    -0.72300
O1729       O  0.92139495  0.51855431  0.51424959    -0.72100
O1730       O  0.92655879  0.97873678  0.42666213    -0.72100
O1731       O  0.87508352  0.95576117  0.43633079    -0.72100
O1732       O  0.87070766  0.54138634  0.50134518    -0.72100
O1733       O  0.87297569  0.53132130  0.41985240    -0.72000
O1734       O  0.87316533  0.96732506  0.51764283    -0.72200
V1735       V  0.92258841  0.49706341  0.46758368     1.35200
V1736       V  0.86945540  0.49716497  0.46568684     1.35200
C1737       C  0.90049303  0.94464304  0.01454761     0.77200
C1738       C  0.90294352  0.55004004  0.41888788     0.77300
C1739       C  0.90492580  0.55248592  0.02671108     0.77100
C1740       C  0.90560041  0.95393201  0.41775701     0.77100
O1741       O  0.53961837  0.95610376  0.34281712    -0.72000
O1742       O  0.96914067  0.54070943  0.33497165    -0.72300
O1743       O  0.54734681  0.53100144  0.33739033    -0.72100
O1744       O  0.96088627  0.96358252  0.34037022    -0.72100
O1745       O  0.98217900  0.95526339  0.39473111    -0.72100
O1746       O  0.52262170  0.54163548  0.38987573    -0.72100
O1747       O  0.95630781  0.51748259  0.38742085    -0.72000
O1748       O  0.54750805  0.98048885  0.39605755    -0.72200
V1749       V  0.50340195  0.49644668  0.33349941     1.35200
V1750       V  0.00138507  0.49657772  0.38876480     1.35200
C1751       C  0.55751508  0.95581175  0.37463558     0.77200
C1752       C  0.94858528  0.54202284  0.36504828     0.77300
C1753       C  0.54785578  0.55015106  0.36854517     0.77100
C1754       C  0.95866571  0.94541041  0.37201843     0.77100
O1755       O  0.53725723  0.87706476  0.52361885    -0.72000
O1756       O  0.97013098  0.87315330  0.43117394    -0.72300
O1757       O  0.54795578  0.87527797  0.44272578    -0.72100
O1758       O  0.95881435  0.87486639  0.51301526    -0.72100
O1759       O  0.97969653  0.92717407  0.52286573    -0.72100
O1760       O  0.52446918  0.92620615  0.43065867    -0.72100
O1761       O  0.95780308  0.92470527  0.45327639    -0.72000
O1762       O  0.54577282  0.92867618  0.49969118    -0.72200
V1763       V  0.00350627  0.87282150  0.47774303     1.35200
V1764       V  0.00189180  0.92614602  0.47659234     1.35200
C1765       C  0.55186759  0.89900988  0.01883261     0.77200
C1766       C  0.95042859  0.90249752  0.42818795     0.77300
C1767       C  0.54945299  0.90498365  0.42278209     0.77100
C1768       C  0.95240591  0.89970562  0.02457817     0.77100
C1769       C  0.61010390  0.65355748  0.12389089    -0.09400
C1770       C  0.64838042  0.65246186  0.12021737     0.06800
C1771       C  0.66307529  0.62893044  0.09217952    -0.03200
C1772       C  0.64014834  0.60817860  0.06889308    -0.07600
C1773       C  0.60197044  0.60850552  0.07328538     0.05900
C1774       C  0.58722983  0.63197273  0.10132700    -0.02700
Br1775     Br  0.53606200  0.63654809  0.11102877    -0.02400
H1776       H  0.59703745  0.67068721  0.14468098     0.09800
H1777       H  0.65312388  0.59173204  0.04732140     0.07800
Br1778     Br  0.71420587  0.62376178  0.08268737    -0.02800
C1779       C  0.88296510  0.66522998  0.10817903    -0.09400
C1780       C  0.84996967  0.64993305  0.12059960     0.06800
C1781       C  0.84181868  0.61396331  0.10788615    -0.03200
C1782       C  0.86697398  0.59440542  0.08584586    -0.07600
C1783       C  0.90048119  0.60928616  0.07404379     0.05900
C1784       C  0.90853279  0.64534536  0.08682254    -0.02700
Br1785     Br  0.95355367  0.67061418  0.07966120    -0.02400
H1786       H  0.88955574  0.69308058  0.11579945     0.09800
H1787       H  0.85975485  0.56669395  0.07814583     0.07800
Br1788     Br  0.79642045  0.58905717  0.11481812    -0.02800
C1789       C  0.61618226  0.84057199  0.11051140    -0.09400
C1790       C  0.65081599  0.85411191  0.11999238     0.06800
C1791       C  0.65973924  0.88971090  0.10682292    -0.03200
C1792       C  0.63410040  0.91034968  0.08659597    -0.07600
C1793       C  0.59906811  0.89706209  0.07773332     0.05900
C1794       C  0.59006360  0.86192635  0.09186026    -0.02700
Br1795     Br  0.54271193  0.84058429  0.09069038    -0.02400
H1796       H  0.60860872  0.81322575  0.11842934     0.09800
H1797       H  0.64215559  0.93752355  0.07806483     0.07800
Br1798     Br  0.70655112  0.91265259  0.11114320    -0.02800
C1799       C  0.64018827  0.60011910  0.37369760    -0.09400
C1800       C  0.60201478  0.59965211  0.36869107     0.06800
C1801       C  0.58688371  0.62555061  0.34335130    -0.03200
C1802       C  0.60944311  0.65016705  0.32387320    -0.07600
C1803       C  0.64757430  0.65095004  0.32921869     0.05900
C1804       C  0.66262323  0.62545916  0.35504340    -0.02700
Br1805     Br  0.71389106  0.62273124  0.36607785    -0.02400
H1806       H  0.65334203  0.58122355  0.39261398     0.09800
H1807       H  0.59634287  0.66860921  0.30432887     0.07800
Br1808     Br  0.53548359  0.62902116  0.33306978    -0.02800
C1809       C  0.88882558  0.85419927  0.12577117    -0.09400
C1810       C  0.85112410  0.85152696  0.11945120     0.06800
C1811       C  0.83637823  0.87256199  0.08923297    -0.03200
C1812       C  0.85904635  0.89430292  0.06643925    -0.07600
C1813       C  0.89679943  0.89696662  0.07295178     0.05900
C1814       C  0.91133015  0.87617957  0.10327203    -0.02700
Br1815     Br  0.96169299  0.87581095  0.11671893    -0.02400
H1816       H  0.90151696  0.83968033  0.14884714     0.09800
H1817       H  0.84647780  0.90895058  0.04332230     0.07800
Br1818     Br  0.78577348  0.87316723  0.07579989    -0.02800
C1819       C  0.64307319  0.90333858  0.37709815    -0.09400
C1820       C  0.60472258  0.90108335  0.37480101     0.06800
C1821       C  0.58959398  0.87485752  0.34990170    -0.03200
C1822       C  0.61231069  0.85206086  0.32861716    -0.07600
C1823       C  0.65061246  0.85499035  0.32988908     0.05900
C1824       C  0.66583210  0.88110855  0.35490103    -0.02700
Br1825     Br  0.71752443  0.88753550  0.36141246    -0.02400
H1826       H  0.65615004  0.92248106  0.39591051     0.09800
H1827       H  0.59895853  0.83205892  0.31108707     0.07800
Br1828     Br  0.53799884  0.86728613  0.34361891    -0.02800
C1829       C  0.86461005  0.61869791  0.30913707    -0.09400
C1830       C  0.85084967  0.64945715  0.32875304     0.06800
C1831       C  0.86333390  0.65487093  0.36658093    -0.03200
C1832       C  0.88520247  0.62854258  0.38411082    -0.07600
C1833       C  0.89925058  0.59815476  0.36445452     0.05900
C1834       C  0.88786128  0.59313931  0.32620095    -0.02700
Br1835     Br  0.89854902  0.55146663  0.29488596    -0.02400
H1836       H  0.85728668  0.61412151  0.27969882     0.09800
H1837       H  0.89220526  0.63267913  0.41368091     0.07800
Br1838     Br  0.85721430  0.69816611  0.39652482    -0.02800
C1839       C  0.90338107  0.85977954  0.37412634    -0.09400
C1840       C  0.90268668  0.89817684  0.37041266     0.06800
C1841       C  0.87689878  0.91324698  0.34508378    -0.03200
C1842       C  0.85209528  0.89072721  0.32605638    -0.07600
C1843       C  0.85284417  0.85232261  0.32942772     0.05900
C1844       C  0.87949090  0.83710114  0.35374447    -0.02700
Br1845     Br  0.88504246  0.78549551  0.36115352    -0.02400
H1846       H  0.92259198  0.84661068  0.39275695     0.09800
H1847       H  0.83256519  0.90426726  0.30822134     0.07800
Br1848     Br  0.87287819  0.96459807  0.33500400    -0.02800
O1849       O  0.78028150  0.79343392  0.85280101    -0.72000
O1850       O  0.71243739  0.70403833  0.85111701    -0.72300
O1851       O  0.79041841  0.71454630  0.85272839    -0.72100
O1852       O  0.70204005  0.78235716  0.85116563    -0.72100
O1853       O  0.72556905  0.79267601  0.79795666    -0.72100
O1854       O  0.76992060  0.70385718  0.79871332    -0.72100
O1855       O  0.70362763  0.72611696  0.79714493    -0.72000
O1856       O  0.79224621  0.77082274  0.79964926    -0.72200
V1857       V  0.74631513  0.74857102  0.85432384     1.35200
V1858       V  0.74782820  0.74840808  0.79890555     1.35200
C1859       C  0.79989976  0.79558310  0.82206355     0.77200
C1860       C  0.69454048  0.70182963  0.81934797     0.77300
C1861       C  0.79374179  0.69554798  0.82169449     0.77100
C1862       C  0.70069543  0.80091578  0.81987276     0.77100
O1863       O  0.82318143  0.79464863  0.74243575    -0.72000
O1864       O  0.82635713  0.70550768  0.69721083    -0.72300
O1865       O  0.82497754  0.72865651  0.76660343    -0.72100
O1866       O  0.82451951  0.77192561  0.67344747    -0.72100
O1867       O  0.87576114  0.79480752  0.68394533    -0.72100
O1868       O  0.87713276  0.70756303  0.75671111    -0.72100
O1869       O  0.87770207  0.71676322  0.67454771    -0.72000
O1870       O  0.87513081  0.78648143  0.76550651    -0.72200
V1871       V  0.82536940  0.75013501  0.71989578     1.35200
V1872       V  0.87860993  0.75140693  0.72027535     1.35200
C1873       C  0.84456364  0.80432302  0.76738050     0.77200
C1874       C  0.84828371  0.69729495  0.67211094     0.77300
C1875       C  0.84709914  0.70511228  0.77615441     0.77100
C1876       C  0.84592735  0.79626569  0.66418518     0.77100
O1877       O  0.76792802  0.82597917  0.76628231    -0.72000
O1878       O  0.72680473  0.82493087  0.67248270    -0.72300
O1879       O  0.79247213  0.82665752  0.69751004    -0.72100
O1880       O  0.70261060  0.82444077  0.74065830    -0.72100
O1881       O  0.71093462  0.87627372  0.76434661    -0.72100
O1882       O  0.78133223  0.87788570  0.67392425    -0.72100
O1883       O  0.70313840  0.87628318  0.68282542    -0.72000
O1884       O  0.78950952  0.87776664  0.75567602    -0.72200
V1885       V  0.74749049  0.82599750  0.71921380     1.35200
V1886       V  0.74619917  0.87933803  0.71927085     1.35200
C1887       C  0.79160057  0.84796972  0.77553878     0.77200
C1888       C  0.70235301  0.84616348  0.66335924     0.77300
C1889       C  0.80084625  0.84831164  0.67228313     0.77100
C1890       C  0.69287761  0.84581127  0.76568659     0.77100
O1891       O  0.67172259  0.76838614  0.76389478    -0.72000
O1892       O  0.67507091  0.72607938  0.67040661    -0.72300
O1893       O  0.67295558  0.79198225  0.69529424    -0.72100
O1894       O  0.67372038  0.70250002  0.73879427    -0.72100
O1895       O  0.62175058  0.71190977  0.76105854    -0.72100
O1896       O  0.62218069  0.78116973  0.67085480    -0.72100
O1897       O  0.62345910  0.70328914  0.67916621    -0.72000
O1898       O  0.62035314  0.79020212  0.75210765    -0.72200
V1899       V  0.67285440  0.74727812  0.71708101     1.35200
V1900       V  0.61969388  0.74651434  0.71579007     1.35200
C1901       C  0.64961917  0.79227506  0.77265830     0.77200
C1902       C  0.65383693  0.70196148  0.66021569     0.77300
C1903       C  0.65156921  0.80072483  0.67001507     0.77100
C1904       C  0.65183086  0.69336012  0.76338833     0.77100
O1905       O  0.79597311  0.62200886  0.68234148    -0.72000
O1906       O  0.70717614  0.61976721  0.75271490    -0.72300
O1907       O  0.71799187  0.62023447  0.67107445    -0.72100
O1908       O  0.78557559  0.62156543  0.76404734    -0.72100
O1909       O  0.79477785  0.67355601  0.74144212    -0.72100
O1910       O  0.70643746  0.67149172  0.69459351    -0.72100
O1911       O  0.72844304  0.67166910  0.76422812    -0.72000
O1912       O  0.77264499  0.67340986  0.67203871    -0.72200
V1913       V  0.75176691  0.61863156  0.71757767     1.35200
V1914       V  0.75055253  0.67198430  0.71807000     1.35200
C1915       C  0.79725482  0.65219731  0.66312891     0.77200
C1916       C  0.70443588  0.64966480  0.77246441     0.77300
C1917       C  0.69863074  0.64989005  0.66899560     0.77100
C1918       C  0.80367322  0.65201267  0.76661324     0.77100
O1919       O  0.71576582  0.79367684  0.58441214    -0.72000
O1920       O  0.78623650  0.70607693  0.58486229    -0.72300
O1921       O  0.70742572  0.71475703  0.58379382    -0.72100
O1922       O  0.79431563  0.78460411  0.58599845    -0.72100
O1923       O  0.77005705  0.79461621  0.63889010    -0.72100
O1924       O  0.73024394  0.70352620  0.63686710    -0.72100
O1925       O  0.79530804  0.72876898  0.63865389    -0.72000
O1926       O  0.70453019  0.76975018  0.63687420    -0.72200
V1927       V  0.75097158  0.74975406  0.58222871     1.35200
V1928       V  0.74997378  0.74921492  0.63746054     1.35200
C1929       C  0.69600496  0.79466214  0.61508541     0.77200
C1930       C  0.80474686  0.70454169  0.61633693     0.77300
C1931       C  0.70620946  0.69482174  0.61430690     0.77100
C1932       C  0.79469058  0.80370103  0.61717207     0.77100
C1933       C  0.82291836  0.82715843  0.79977055    -0.02700
C1934       C  0.92504951  0.92083956  0.88784544    -0.02700
C1935       C  0.82624663  0.67347725  0.79990215    -0.02700
C1936       C  0.92533714  0.57546504  0.88839522    -0.02700
C1937       C  0.66992345  0.82377510  0.79736297    -0.02700
C1938       C  0.57798741  0.92004387  0.89240732    -0.02700
C1939       C  0.82455883  0.82753239  0.64000428    -0.02700
C1940       C  0.92387625  0.92671024  0.55461494    -0.02700
C1941       C  0.67265667  0.67036079  0.79616186    -0.02700
C1942       C  0.57857203  0.57465620  0.88959062    -0.02700
C1943       C  0.67231193  0.82506966  0.63833650    -0.02700
C1944       C  0.57698226  0.92997999  0.55747162    -0.02700
C1945       C  0.82787042  0.67374614  0.63913268    -0.02700
C1946       C  0.92049838  0.57437607  0.54682533    -0.02700
C1947       C  0.67566799  0.67087312  0.63623388    -0.02700
C1948       C  0.57279646  0.57478804  0.55185547    -0.02700
O1949       O  0.57373245  0.97577158  0.01833663    -0.72000
O1950       O  0.57733774  0.52136169  0.92590178    -0.72300
O1951       O  0.57630715  0.95235957  0.94983763    -0.72100
O1952       O  0.57724382  0.54855261  0.99327442    -0.72100
O1953       O  0.62838885  0.53894296  0.01741939    -0.72100
O1954       O  0.62829632  0.96234496  0.92807380    -0.72100
O1955       O  0.62869716  0.54420809  0.93575200    -0.72000
O1956       O  0.62565541  0.95336313  0.00974085    -0.72200
V1957       V  0.57612767  0.99717698  0.97182982     1.35200
V1958       V  0.62926109  0.99702117  0.97378991     1.35200
C1959       C  0.59763614  0.96130020  0.53319529     0.77200
C1960       C  0.59918630  0.54475802  0.91554844     0.76500
C1961       C  0.59851503  0.94338828  0.92537243     0.77100
C1962       C  0.59427219  0.55070717  0.52011559     0.77100
O1963       O  0.98041085  0.57652890  0.92225933    -0.72000
O1964       O  0.52281166  0.58206096  0.01568777    -0.72300
O1965       O  0.95697588  0.58128574  0.99114805    -0.72100
O1966       O  0.54611214  0.57755623  0.94670458    -0.72100
O1967       O  0.53747955  0.62818527  0.92070918    -0.72100
O1968       O  0.96237406  0.62555474  0.51287626    -0.72100
O1969       O  0.54575464  0.63271244  0.00224295    -0.72000
O1970       O  0.95907650  0.62920076  0.92872068    -0.72200
V1971       V  0.50162463  0.57995244  0.96889581     1.35200
V1972       V  0.50234069  0.63322186  0.96542047     1.35200
C1973       C  0.95685280  0.59795548  0.91115260     0.77200
C1974       C  0.54245656  0.59590112  0.52687492     0.77300
C1975       C  0.94414978  0.59524435  0.51479767     0.77100
C1976       C  0.55558686  0.59775962  0.92062509     0.77100
O1977       O  0.52088596  0.96041729  0.55636264    -0.72000
O1978       O  0.97574227  0.54206019  0.54868415    -0.72300
O1979       O  0.54199145  0.51854442  0.55175493    -0.72100
O1980       O  0.95442723  0.98299094  0.55366224    -0.72100
O1981       O  0.96353497  0.96279774  0.60813779    -0.72100
O1982       O  0.52978342  0.54125380  0.60446199    -0.72100
O1983       O  0.95149865  0.53258451  0.60163339    -0.72000
O1984       O  0.54227270  0.97279643  0.60979219    -0.72200
V1985       V  0.49721102  0.49717299  0.55036416     1.35200
V1986       V  0.99509880  0.49758245  0.60575860     1.35200
C1987       C  0.54507012  0.95288787  0.57927072     0.77200
C1988       C  0.95078314  0.55111719  0.57020371     0.77300
C1989       C  0.54974144  0.54326726  0.57407883     0.77100
C1990       C  0.94540253  0.95937359  0.57667760     0.77100
O1991       O  0.92281083  0.95307435  0.99001853    -0.72000
O1992       O  0.92604740  0.54695213  0.94815218    -0.72300
O1993       O  0.92654226  0.52789398  0.01875108    -0.72100
O1994       O  0.92539232  0.97606789  0.92127419    -0.72100
O1995       O  0.87323309  0.95427627  0.93004386    -0.72100
O1996       O  0.87490455  0.54968244  0.00738354    -0.72100
O1997       O  0.87431581  0.53601375  0.92604579    -0.72000
O1998       O  0.87094219  0.96408181  0.01178270    -0.72200
V1999       V  0.92563823  0.50373854  0.97364310     1.35200
V2000       V  0.87232812  0.50393448  0.97380890     1.35200
C2001       C  0.90346313  0.94914157  0.52081880     0.77200
C2002       C  0.90434748  0.55440612  0.92261303     0.77300
C2003       C  0.89974294  0.54302927  0.52234827     0.77100
C2004       C  0.90381242  0.95210499  0.91160085     0.77100
O2005       O  0.53824909  0.95259712  0.83721051    -0.72000
O2006       O  0.96833019  0.54012734  0.83749411    -0.72300
O2007       O  0.54634909  0.52978621  0.83815630    -0.72100
O2008       O  0.95958430  0.96237045  0.83462335    -0.72100
O2009       O  0.98077135  0.95182930  0.88855683    -0.72100
O2010       O  0.52291483  0.54343973  0.89052651    -0.72100
O2011       O  0.95643892  0.51972829  0.89141777    -0.72000
O2012       O  0.54673260  0.97554001  0.89104412    -0.72200
V2013       V  0.50209518  0.49552155  0.83749540     1.35200
V2014       V  0.00140656  0.49857262  0.89272691     1.35200
C2015       C  0.55605819  0.95104358  0.86906256     0.77200
C2016       C  0.94847419  0.54319879  0.86794072     0.77300
C2017       C  0.54771588  0.55053737  0.86811925     0.77100
C2018       C  0.95682636  0.94335413  0.86569433     0.77100
O2019       O  0.53297491  0.86918761  0.01600626    -0.72000
O2020       O  0.96624787  0.86973268  0.92338906    -0.72300
O2021       O  0.54398551  0.86914343  0.93499131    -0.72100
O2022       O  0.95456901  0.86969267  0.00486444    -0.72100
O2023       O  0.97700433  0.92103232  0.01626693    -0.72100
O2024       O  0.52220024  0.92113446  0.92436995    -0.72100
O2025       O  0.95574267  0.92135982  0.94649741    -0.72000
O2026       O  0.54367269  0.92071012  0.99361976    -0.72200
V2027       V  0.99939725  0.86718567  0.96985107     1.35200
V2028       V  0.99962390  0.92052320  0.97021150     1.35200
C2029       C  0.55496386  0.90771418  0.52514979     0.77200
C2030       C  0.94752723  0.89975426  0.92105154     0.77300
C2031       C  0.54640139  0.89927710  0.91583766     0.77100
C2032       C  0.95591692  0.90526425  0.53201674     0.77100
C2033       C  0.61856372  0.63330958  0.63099279    -0.09400
C2034       C  0.65065196  0.64543657  0.61318344     0.06800
C2035       C  0.65685471  0.63353682  0.57523930    -0.03200
C2036       C  0.63093742  0.61186843  0.55660544    -0.07600
C2037       C  0.59847785  0.60019765  0.57434397     0.05900
C2038       C  0.59189245  0.61324380  0.61171323    -0.02700
Br2039     Br  0.54659614  0.60992300  0.63822622    -0.02400
H2040       H  0.61325691  0.64050725  0.66032896     0.09800
H2041       H  0.63666900  0.60416772  0.52748869     0.07800
Br2042     Br  0.70062017  0.64119056  0.54657399    -0.02800
C2043       C  0.88985942  0.65040507  0.61624275    -0.09400
C2044       C  0.85159040  0.64854365  0.61444663     0.06800
C2045       C  0.83619120  0.62191020  0.59000614    -0.03200
C2046       C  0.85850578  0.59781932  0.56948966    -0.07600
C2047       C  0.89677308  0.59993532  0.57103767     0.05900
C2048       C  0.91216758  0.62706673  0.59479166    -0.02700
Br2049     Br  0.96356774  0.63426967  0.59992729    -0.02400
H2050       H  0.90323235  0.67026670  0.63410276     0.09800
H2051       H  0.84514858  0.57759884  0.55214583     0.07800
Br2052     Br  0.78479417  0.61551597  0.58338959    -0.02800
C2053       C  0.60962396  0.84973402  0.61937299    -0.09400
C2054       C  0.64786285  0.85135493  0.61587284     0.06800
C2055       C  0.66241802  0.88053937  0.59451656    -0.03200
C2056       C  0.63957612  0.90688383  0.57838145    -0.07600
C2057       C  0.60133970  0.90459439  0.58097553     0.05900
C2058       C  0.58678142  0.87559132  0.60247106    -0.02700
Br2059     Br  0.53588981  0.86915049  0.61090558    -0.02400
H2060       H  0.59649006  0.82851170  0.63531125     0.09800
H2061       H  0.65264685  0.92888545  0.56358370     0.07800
Br2062     Br  0.71335883  0.88781968  0.58686307    -0.02800
C2063       C  0.64111563  0.59611393  0.86631917    -0.09400
C2064       C  0.60273730  0.59832021  0.86414845     0.06800
C2065       C  0.58762345  0.62432789  0.83909726    -0.03200
C2066       C  0.61035636  0.64661153  0.81729614    -0.07600
C2067       C  0.64869927  0.64521199  0.82028234     0.05900
C2068       C  0.66384752  0.61961335  0.84581487    -0.02700
Br2069     Br  0.71540250  0.61471961  0.85457970    -0.02400
H2070       H  0.65438536  0.57653885  0.88444762     0.09800
H2071       H  0.59700932  0.66540539  0.79845335     0.07800
Br2072     Br  0.53602823  0.63160344  0.83274713    -0.02800
C2073       C  0.88202852  0.86464511  0.63339840    -0.09400
C2074       C  0.84900520  0.85349543  0.61700593     0.06800
C2075       C  0.84028727  0.86820651  0.58079663    -0.03200
C2076       C  0.86477769  0.89130739  0.56205166    -0.07600
C2077       C  0.89848039  0.90160438  0.57791402     0.05900
C2078       C  0.90710817  0.88662059  0.61403429    -0.02700
Br2079     Br  0.95228186  0.89213961  0.63998261    -0.02400
H2080       H  0.88903130  0.85582311  0.66173098     0.09800
H2081       H  0.85703389  0.90067002  0.53406183     0.07800
Br2082     Br  0.79530575  0.86138982  0.55434946    -0.02800
C2083       C  0.63969027  0.89542950  0.87107176    -0.09400
C2084       C  0.60143769  0.89476227  0.86797138     0.06800
C2085       C  0.58573648  0.86999708  0.84172661    -0.03200
C2086       C  0.60799318  0.84682904  0.82010527    -0.07600
C2087       C  0.64629245  0.84811550  0.82261831     0.05900
C2088       C  0.66196791  0.87315669  0.84857827    -0.02700
Br2089     Br  0.71369921  0.87870772  0.85573971    -0.02400
H2090       H  0.65313874  0.91355016  0.89073305     0.09800
H2091       H  0.59459507  0.82822162  0.80091017     0.07800
Br2092     Br  0.53400555  0.86549542  0.83376941    -0.02800
C2093       C  0.86498483  0.61627580  0.80692440    -0.09400
C2094       C  0.85182911  0.64871688  0.82375396     0.06800
C2095       C  0.86442296  0.65650536  0.86123323    -0.03200
C2096       C  0.88617895  0.63133082  0.88090000    -0.07600
C2097       C  0.89969009  0.59929611  0.86394870     0.05900
C2098       C  0.88814039  0.59181876  0.82601303    -0.02700
Br2099     Br  0.89898511  0.54854149  0.79721111    -0.02400
H2100       H  0.85752313  0.60958512  0.77796192     0.09800
H2101       H  0.89353110  0.63763203  0.90998114     0.07800
Br2102     Br  0.85735469  0.70108726  0.88863389    -0.02800
C2103       C  0.90031381  0.85861200  0.86666037    -0.09400
C2104       C  0.89953174  0.89700564  0.86355334     0.06800
C2105       C  0.87292573  0.91234666  0.83923239    -0.03200
C2106       C  0.84752542  0.88987759  0.82062134    -0.07600
C2107       C  0.84849038  0.85138256  0.82364503     0.05900
C2108       C  0.87588980  0.83615549  0.84694620    -0.02700
Br2109     Br  0.88237752  0.78469852  0.85355617    -0.02400
H2110       H  0.92012660  0.84508189  0.88423252     0.09800
H2111       H  0.82749288  0.90333509  0.80327540     0.07800
Br2112     Br  0.86891643  0.96392320  0.83007709    -0.02800
loop_ 
_geom_bond_atom_site_label_1 
_geom_bond_atom_site_label_2 
_geom_bond_distance 
_geom_bond_site_symmetry_2 
_ccdc_geom_bond_type 
O1            V9   2.058       .  S
O1           C11   1.299       .  A
O2            V9   2.052       .  S
O2           C12   1.299       .  A
O3            V9   2.041       .  S
O3           C13   1.297       .  A
O4            V9   2.039       .  S
O4           C14   1.295       .  A
O5           V10   1.810       .  S
O5           C14   1.230       .  A
O6           V10   1.819       .  S
O6           C13   1.229       .  A
O7           V10   1.815       .  S
O7           C12   1.229       .  A
O8           V10   1.822       .  S
O8           C11   1.231       .  A
V9           V10   1.949       .  T
C11          C85   1.629       .  S
C12          C93   1.621       .  S
C13          C87   1.629       .  S
C14          C89   1.609       .  S
O15          V23   1.807       .  S
O15          C25   1.228       .  A
O16          V23   1.814       .  S
O16          C26   1.229       .  A
O17          V23   1.822       .  S
O17          C27   1.230       .  A
O18          V23   1.822       .  S
O18          C28   1.233       .  A
O19          V24   2.044       .  S
O19          C28   1.297       .  A
O20          V24   2.056       .  S
O20          C27   1.299       .  A
O21          V24   2.044       .  S
O21          C26   1.297       .  A
O22          V24   2.041       .  S
O22          C25   1.297       .  A
V23          V24   1.954       .  T
C25          C85   1.613       .  S
C26          C97   1.626       .  S
C27          C87   1.621       .  S
C28          C91   1.628       .  S
O29          V37   1.815       .  S
O29          C39   1.227       .  A
O30          V37   1.810       .  S
O30          C40   1.229       .  A
O31          V37   1.819       .  S
O31          C41   1.229       .  A
O32          V37   1.811       .  S
O32          C42   1.227       .  A
O33          V38   2.048       .  S
O33          C42   1.298       .  A
O34          V38   2.049       .  S
O34          C41   1.297       .  A
O35          V38   2.040       .  S
O35          C40   1.296       .  A
O36          V38   2.042       .  S
O36          C39   1.298       .  A
V37          V38   1.950       .  T
C39          C85   1.619       .  S
C40          C95   1.608       .  S
C41          C91   1.616       .  S
C42          C89   1.612       .  S
O43          V51   1.814       .  S
O43          C53   1.229       .  A
O44          V51   1.813       .  S
O44          C54   1.230       .  A
O45          V51   1.806       .  S
O45          C55   1.228       .  A
O46          V51   1.811       .  S
O46          C56   1.227       .  A
O47          V52   2.039       .  S
O47          C56   1.297       .  A
O48          V52   2.027       .  S
O48          C55   1.295       .  A
O49          V52   2.043       .  S
O49          C54   1.299       .  A
O50          V52   2.042       .  S
O50          C53   1.297       .  A
V51          V52   1.949       .  T
C53          C89   1.623       .  S
C54          C99   1.623       .  S
C55          C95   1.614       .  S
C56          C93   1.619       .  S
O57          V65   2.046       .  S
O57          C67   1.297       .  A
O58          V65   2.051       .  S
O58          C68   1.297       .  A
O59          V65   2.052       .  S
O59          C69   1.298       .  A
O60          V65   2.054       .  S
O60          C70   1.300       .  A
O61          V66   1.819       .  S
O61          C70   1.230       .  A
O62          V66   1.816       .  S
O62          C69   1.230       .  A
O63          V66   1.815       .  S
O63          C68   1.230       .  A
O64          V66   1.813       .  S
O64          C67   1.229       .  A
V65          V66   1.951       .  T
C67          C97   1.616       .  S
C68          C93   1.621       .  S
C69          C99   1.620       .  S
C70          C87   1.634       .  S
O71          V79   2.059       .  S
O71          C81   1.299       .  A
O72          V79   2.055       .  S
O72          C82   1.300       .  A
O73          V79   2.046       .  S
O73          C83   1.299       .  A
O74          V79   2.046       .  S
O74          C84   1.298       .  A
O75          V80   1.821       .  S
O75          C84   1.230       .  A
O76          V80   1.822       .  S
O76          C83   1.229       .  A
O77          V80   1.823       .  S
O77          C82   1.231       .  A
O78          V80   1.825       .  S
O78          C81   1.232       .  A
V79          V80   1.942       .  T
C81          C95   1.629       .  S
C82          C97   1.623       .  S
C83          C99   1.619       .  S
C84          C91   1.619       .  S
C85         C259   1.530       .  S
C86         C156   1.609       .  S
C86         C170   1.625       .  S
C86         C182   1.623       .  S
C86         C256   1.530       .  S
C87         C246   1.552       .  S
C88         C125   1.628       .  S
C88         C154   1.621       .  S
C88         C168   1.620       .  S
C88         C249   1.545       .  S
C89         C239   1.521       .  S
C90         C113   1.622       .  S
C90         C167   1.615       .  S
C90         C183   1.613       .  S
C90         C236   1.522       .  S
C91         C226   1.544       .  S
C92         C142   1.634       .  S
C92         C153   1.631       .  S
C92         C184   1.614       .  S
C92         C229   1.549       .  S
C93         C219   1.533       .  S
C94         C112   1.618       .  S
C94         C128   1.618       .  S
C94         C169   1.618       .  S
C94         C216   1.533       .  S
C95         C206   1.533       .  S
C96         C111   1.615       .  S
C96         C139   1.630       .  S
C96         C181   1.613       .  S
C96         C209   1.532       .  S
C97         C196   1.537       .  S
C98         C127   1.618       .  S
C98         C140   1.622       .  S
C98         C155   1.625       .  S
C98         C199   1.537       .  S
C99         C186   1.538       .  S
C100        C114   1.623       .  S
C100        C126   1.616       .  S
C100        C141   1.629       .  S
C100        C189   1.542       .  S
O101        V109   1.815       .  S
O101        C375   1.230       .  A
O102        V637   1.814       .  S
O102        C112   1.230       .  A
O103        V109   1.808       .  S
O103        C113   1.227       .  A
O104        V637   1.811       .  S
O104        C378   1.229       .  A
O105        V638   2.040       .  S
O105        C378   1.297       .  A
O106        V110   2.043       .  S
O106        C113   1.297       .  A
O107        V638   2.033       .  S
O107        C112   1.295       .  A
O108        V110   2.045       .  S
O108        C375   1.298       .  A
V109        O630   1.819       .  S
V109        O632   1.811       .  S
V109        V110   1.952       .  T
V110        O633   2.041       .  S
V110        O635   2.041       .  S
C111        O365   1.228       .  A
C111        O372   1.296       .  A
C114        O368   1.229   1_554  A
C114        O369   1.297       .  A
O115       V1179   1.822       .  S
O115        C125   1.231       .  A
O116        V123   1.825   1_455  S
O116        C390   1.229       .  A
O117       V1179   1.810       .  S
O117        C391   1.228       .  A
O118        V123   1.815   1_455  S
O118        C128   1.229       .  A
O119        V124   2.047   1_455  S
O119        C128   1.296       .  A
O120       V1444   2.047   1_554  S
O120        C127   1.298       .  A
O121        V124   2.058   1_455  S
O121        C390   1.299       .  A
O122       V1180   2.048       .  S
O122        C125   1.299       .  A
V123       O1171   1.822       .  S
V123       O1173   1.810       .  S
V123        V124   1.952       .  T
V124       O1440   2.045       .  S
V124       O1178   2.048       .  S
C126        O380   1.229       .  A
C126        O385   1.298       .  A
C127        O381   1.229   1_554  A
O129        V665   1.828       .  S
O129        C139   1.232       .  A
O130       V1193   1.820   1_545  S
O130        C140   1.231       .  A
O131        V137   1.819   1_445  S
O131        C141   1.229       .  A
O132       V1721   1.824       .  S
O132        C142   1.230       .  A
O133        V666   2.050       .  S
O133        C142   1.298       .  A
O134       V1194   2.040   1_445  S
O134        C141   1.296       .  A
O135        V138   2.051   1_545  S
O135        C140   1.298       .  A
O136       V1722   2.060       .  S
O136        C139   1.299       .  A
V137        O657   1.822   1_655  S
V137       O1186   1.820   1_565  S
V137       O1716   1.814       .  S
V137       V1194   1.951       .  T
V138        O661   2.041       .  S
V138       O1190   2.040   1_565  S
V138       O1720   2.058       .  S
V138       V1193   1.951       .  T
O143        V679   1.814       .  S
O143        C417   1.228       .  A
O144        V151   1.820       .  S
O144        C154   1.231       .  A
O145        V151   1.816       .  S
O145        C419   1.229       .  A
O146        V679   1.809       .  S
O146        C156   1.228       .  A
O147        V680   2.041       .  S
O147        C156   1.297       .  A
O148        V152   2.048       .  S
O148        C419   1.298       .  A
O149        V152   2.050       .  S
O149        C154   1.297       .  A
O150        V680   2.045       .  S
O150        C417   1.298       .  A
V151        O671   1.815   1_545  S
V151        O674   1.813   1_545  S
V151        V152   1.952       .  T
V152        O675   2.045   1_545  S
V152        O678   2.048   1_545  S
C153        O407   1.231   1_554  A
C153        O414   1.298       .  A
C155        O409   1.229       .  A
C155        O412   1.298       .  A
O157        V693   2.048       .  S
O157        C167   1.298       .  A
O158       V1221   2.047   1_545  S
O158        C168   1.298       .  A
O159        V165   2.048   1_545  S
O159        C169   1.297       .  A
O160       V1749   2.060       .  S
O160        C170   1.300       .  A
O161        V694   1.822       .  S
O161        C170   1.230       .  A
O162       V1222   1.821       .  S
O162        C169   1.231       .  A
O163        V166   1.821       .  S
O163        C168   1.229       .  A
O164       V1750   1.814       .  S
O164        C167   1.229       .  A
V165        O685   2.047       .  S
V165       O1214   2.047   1_465  S
V165       O1744   2.057   1_455  S
V165       V1222   1.947   1_565  T
V166        O689   1.821   1_545  S
V166       O1218   1.821       .  S
V166       O1748   1.813   1_545  S
V166       V1221   1.947   1_545  T
O171       V1235   2.035   1_455  S
O171        C445   1.295       .  A
O172        V179   2.038       .  S
O172        C182   1.296       .  A
O173       V1235   2.044   1_455  S
O173        C183   1.296       .  A
O174        V179   2.053       .  S
O174        C448   1.298       .  A
O175        V180   1.815       .  S
O175        C448   1.228       .  A
O176       V1236   1.810   1_455  S
O176        C183   1.229       .  A
O177        V180   1.811       .  S
O177        C182   1.229       .  A
O178       V1236   1.812   1_455  S
O178        C445   1.228       .  A
V179       O1227   2.035       .  S
V179       O1229   2.044       .  S
V179        V180   1.950       .  T
V180       O1232   1.810       .  S
V180       O1234   1.812       .  S
C181        O435   1.297       .  A
C181        O442   1.227       .  A
C184        O438   1.299       .  A
C184        O439   1.228       .  A
C185        C186   1.405       .  A
C185        C190   1.400       .  A
C185        H192   1.080       .  S
C186        C187   1.420       .  A
C187        C188   1.400       .  A
C187       Br194   1.916       .  S
C188        C189   1.409       .  A
C188        H193   1.082       .  S
C189        C190   1.419       .  A
C190       Br191   1.910       .  S
C195        C196   1.408       .  A
C195        C200   1.402       .  A
C195        H202   1.076       .  S
C196        C197   1.416       .  A
C197        C198   1.401       .  A
C197       Br204   1.916       .  S
C198        C199   1.408       .  A
C198        H203   1.077       .  S
C199        C200   1.415       .  A
C200       Br201   1.914       .  S
C205        C206   1.411       .  A
C205        C210   1.396       .  A
C205        H212   1.075       .  S
C206        C207   1.408       .  A
C207        C208   1.397       .  A
C207       Br214   1.910       .  S
C208        C209   1.411       .  A
C208        H213   1.074       .  S
C209        C210   1.409       .  A
C210       Br211   1.912       .  S
C215        C216   1.411       .  A
C215        C220   1.399       .  A
C215        H222   1.077       .  S
C216        C217   1.413       .  A
C217        C218   1.400       .  A
C217       Br224   1.925       .  S
C218        C219   1.413       .  A
C218        H223   1.073       .  S
C219        C220   1.412       .  A
C220       Br221   1.923       .  S
C225        C226   1.406       .  A
C225        C230   1.405       .  A
C225        H232   1.079       .  S
C226        C227   1.420       .  A
C227        C228   1.401       .  A
C227       Br234   1.912       .  S
C228        C229   1.409       .  A
C228        H233   1.081       .  S
C229        C230   1.422       .  A
C230       Br231   1.908       .  S
C235        C236   1.408       .  A
C235        C240   1.396       .  A
C235        H242   1.076       .  S
C236        C237   1.414       .  A
C237        C238   1.395       .  A
C237       Br244   1.925       .  S
C238        C239   1.407       .  A
C238        H243   1.077       .  S
C239        C240   1.414       .  A
C240       Br241   1.926       .  S
C245        C246   1.409       .  A
C245        C250   1.405       .  A
C245        H252   1.082       .  S
C246        C247   1.425       .  A
C247        C248   1.402       .  A
C247       Br254   1.910       .  S
C248        C249   1.404       .  A
C248        H253   1.081       .  S
C249        C250   1.423       .  A
C250       Br251   1.915       .  S
C255        C256   1.408       .  A
C255        C260   1.396       .  A
C255        H262   1.076       .  S
C256        C257   1.414       .  A
C257        C258   1.400       .  A
C257       Br264   1.919       .  S
C258        C259   1.410       .  A
C258        H263   1.075       .  S
C259        C260   1.411       .  A
C260       Br261   1.915       .  S
O265        V273   2.057       .  S
O265        C275   1.299       .  A
O266        V273   2.055       .  S
O266        C276   1.300       .  A
O267        V273   2.047       .  S
O267        C277   1.298       .  A
O268        V273   2.043       .  S
O268        C278   1.296       .  A
O269        V274   1.812       .  S
O269        C278   1.229       .  A
O270        V274   1.822       .  S
O270        C277   1.230       .  A
O271        V274   1.821       .  S
O271        C276   1.230       .  A
O272        V274   1.824       .  S
O272        C275   1.232       .  A
V273        V274   1.947       .  T
C275        C349   1.627       .  S
C276        C357   1.626       .  S
C277        C351   1.634       .  S
C278        C353   1.611       .  S
O279        V287   1.811       .  S
O279        C289   1.230       .  A
O280        V287   1.817       .  S
O280        C290   1.229       .  A
O281        V287   1.817       .  S
O281        C291   1.228       .  A
O282        V287   1.816       .  S
O282        C292   1.231       .  A
O283        V288   2.039       .  S
O283        C292   1.296       .  A
O284        V288   2.051       .  S
O284        C291   1.299       .  A
O285        V288   2.050       .  S
O285        C290   1.298       .  A
O286        V288   2.042       .  S
O286        C289   1.297       .  A
V287        V288   1.950       .  T
C289        C349   1.615       .  S
C290        C361   1.629       .  S
C291        C351   1.613       .  S
C292        C355   1.624       .  S
O293        V301   1.817       .  S
O293        C303   1.228       .  A
O294        V301   1.818       .  S
O294        C304   1.227       .  A
O295        V301   1.817       .  S
O295        C305   1.229       .  A
O296        V301   1.817       .  S
O296        C306   1.229       .  A
O297        V302   2.049       .  S
O297        C306   1.298       .  A
O298        V302   2.053       .  S
O298        C305   1.298       .  A
O299        V302   2.036       .  S
O299        C304   1.296       .  A
O300        V302   2.038       .  S
O300        C303   1.298       .  A
V301        V302   1.945       .  T
C303        C349   1.619       .  S
C304        C359   1.607       .  S
C305        C355   1.618       .  S
C306        C353   1.618       .  S
O307        V315   1.811       .  S
O307        C317   1.229       .  A
O308        V315   1.811       .  S
O308        C318   1.229       .  A
O309        V315   1.814       .  S
O309        C319   1.231       .  A
O310        V315   1.816       .  S
O310        C320   1.229       .  A
O311        V316   2.050       .  S
O311        C320   1.298       .  A
O312        V316   2.039       .  S
O312        C319   1.297       .  A
O313        V316   2.042       .  S
O313        C318   1.299       .  A
O314        V316   2.035       .  S
O314        C317   1.295       .  A
V315        V316   1.954       .  T
C317        C353   1.618       .  S
C318        C363   1.624       .  S
C319        C359   1.625       .  S
C320        C357   1.630       .  S
O321        V329   2.041       .  S
O321        C331   1.295       .  A
O322        V329   2.048       .  S
O322        C332   1.297       .  A
O323        V329   2.054       .  S
O323        C333   1.298       .  A
O324        V329   2.048       .  S
O324        C334   1.299       .  A
O325        V330   1.812       .  S
O325        C334   1.230       .  A
O326        V330   1.817       .  S
O326        C333   1.229       .  A
O327        V330   1.812       .  S
O327        C332   1.229       .  A
O328        V330   1.809       .  S
O328        C331   1.230       .  A
V329        V330   1.954       .  T
C331        C361   1.614       .  S
C332        C357   1.617       .  S
C333        C363   1.624       .  S
C334        C351   1.627       .  S
O335        V343   2.054       .  S
O335        C345   1.297       .  A
O336        V343   2.053       .  S
O336        C346   1.300       .  A
O337        V343   2.051       .  S
O337        C347   1.299       .  A
O338        V343   2.040       .  S
O338        C348   1.296       .  A
O339        V344   1.808       .  S
O339        C348   1.228       .  A
O340        V344   1.821       .  S
O340        C347   1.226       .  A
O341        V344   1.816       .  S
O341        C346   1.229       .  A
O342        V344   1.826       .  S
O342        C345   1.232       .  A
V343        V344   1.946       .  T
C345        C359   1.624       .  S
C346        C361   1.616       .  S
C347        C363   1.619       .  S
C348        C355   1.608       .  S
C349        C523   1.536       .  S
C350        C420   1.614       .  S
C350        C434   1.623       .  S
C350        C446   1.627       .  S
C350        C520   1.531       .  S
C351        C510   1.543       .  S
C352        C389   1.624       .  S
C352        C418   1.617       .  S
C352        C432   1.621       .  S
C352        C513   1.538       .  S
C353        C503   1.524       .  S
C354        C377   1.617       .  S
C354        C431   1.614       .  S
C354        C447   1.615       .  S
C354        C500   1.525       .  S
C355        C490   1.526       .  S
C356        C406   1.615       .  S
C356        C417   1.622       .  S
C356        C448   1.620       .  S
C356        C493   1.526       .  S
C357        C483   1.541       .  S
C358        C376   1.625       .  S
C358        C392   1.616       .  S
C358        C433   1.623       .  S
C358        C480   1.542       .  S
C359        C470   1.539       .  S
C360        C375   1.627       .  S
C360        C403   1.622       .  S
C360        C445   1.624       .  S
C360        C473   1.544       .  S
C361        C460   1.531       .  S
C362        C391   1.616       .  S
C362        C404   1.619       .  S
C362        C419   1.626       .  S
C362        C463   1.529       .  S
C363        C450   1.536       .  S
C364        C378   1.620       .  S
C364        C390   1.621       .  S
C364        C405   1.629       .  S
C364        C453   1.545       .  S
O365        V373   1.815   1_554  S
O366        V901   1.820   1_545  S
O366        C376   1.231       .  A
O367        V373   1.810       .  S
O367        C377   1.227       .  A
O368        V901   1.813   1_545  S
O369        V902   2.043   1_544  S
O370        V374   2.034       .  S
O370        C377   1.297       .  A
O371        V902   2.044   1_545  S
O371        C376   1.297       .  A
O372        V374   2.030   1_554  S
V373        O894   1.813       .  S
V373        O896   1.812       .  S
V373        V374   1.949       .  T
V374        O897   2.036   1_556  S
V374        O899   2.032       .  S
O379       V1443   1.818       .  S
O379        C389   1.230       .  A
O380        V387   1.821   1_554  S
O381       V1443   1.814       .  S
O382        V387   1.816       .  S
O382        C392   1.230       .  A
O383        V388   2.046       .  S
O383        C392   1.296       .  A
O384       V1180   2.045       .  S
O384        C391   1.298       .  A
O385        V388   2.052   1_554  S
O386       V1444   2.045       .  S
O386        C389   1.299       .  A
V387       O1435   1.818   1_455  S
V387       O1437   1.814   1_455  S
V387        V388   1.954       .  T
V388       O1176   2.047   1_456  S
V388       O1442   2.045   1_455  S
O393        V929   1.823   1_455  S
O393        C403   1.229       .  A
O394       V1457   1.815       .  S
O394        C404   1.229       .  A
O395        V401   1.819   1_455  S
O395        C405   1.231       .  A
O396       V1985   1.810       .  S
O396        C406   1.229       .  A
O397        V930   2.041       .  S
O397        C406   1.297       .  A
O398       V1458   2.036   1_455  S
O398        C405   1.294       .  A
O399        V402   2.050       .  S
O399        C404   1.298       .  A
O400       V1986   2.060   1_455  S
O400        C403   1.300       .  A
V401        O921   1.822   1_645  S
V401       O1450   1.815       .  S
V401       O1980   1.819   1_545  S
V401       V1458   1.947       .  T
V402        O925   2.042   1_545  S
V402       O1454   2.036       .  S
V402       O1984   2.060   1_545  S
V402       V1457   1.947       .  T
O407        V943   1.815       .  S
O408        V415   1.817   1_545  S
O408        C418   1.231       .  A
O409        V415   1.818   1_544  S
O410        V943   1.809       .  S
O410        C420   1.229       .  A
O411        V944   2.043       .  S
O411        C420   1.296       .  A
O412        V416   2.044   1_544  S
O413        V416   2.047   1_545  S
O413        C418   1.297       .  A
O414        V944   2.048   1_554  S
V415        O935   1.818       .  S
V415        O938   1.811       .  S
V415        V416   1.950       .  T
V416        O939   2.044       .  S
V416        O942   2.050   1_556  S
O421        V957   2.044       .  S
O421        C431   1.297       .  A
O422       V1485   2.048   1_545  S
O422        C432   1.298       .  A
O423        V429   2.051   1_545  S
O423        C433   1.298       .  A
O424       V2013   2.058       .  S
O424        C434   1.301       .  A
O425        V958   1.820       .  S
O425        C434   1.229       .  A
O426       V1486   1.823   1_545  S
O426        C433   1.232       .  A
O427        V430   1.822   1_545  S
O427        C432   1.229       .  A
O428       V2014   1.812       .  S
O428        C431   1.229       .  A
V429        O949   2.047       .  S
V429       O1478   2.048   1_465  S
V429       O2008   2.061   1_455  S
V429       V1486   1.944       .  T
V430        O953   1.824       .  S
V430       O1482   1.823   1_565  S
V430       O2012   1.814       .  S
V430       V1485   1.944       .  T
O435       V1499   2.040   1_554  S
O436        V443   2.048       .  S
O436        C446   1.298       .  A
O437       V1499   2.045       .  S
O437        C447   1.295       .  A
O438        V443   2.052   1_554  S
O439        V444   1.818   1_554  S
O440       V1500   1.818       .  S
O440        C447   1.231       .  A
O441        V444   1.814       .  S
O441        C446   1.227       .  A
O442       V1500   1.804   1_554  S
V443       O1491   2.040   1_556  S
V443       O1493   2.045       .  S
V443        V444   1.952       .  T
V444       O1496   1.818       .  S
V444       O1498   1.804   1_556  S
C449        C450   1.404       .  A
C449        C454   1.398       .  A
C449        H456   1.081       .  S
C450        C451   1.418       .  A
C451        C452   1.402       .  A
C451       Br458   1.917       .  S
C452        C453   1.412       .  A
C452        H457   1.081       .  S
C453        C454   1.420       .  A
C454       Br455   1.911       .  S
C459        C460   1.406       .  A
C459        C464   1.400       .  A
C459        H466   1.076       .  S
C460        C461   1.417       .  A
C461        C462   1.399       .  A
C461       Br468   1.918       .  S
C462        C463   1.405       .  A
C462        H467   1.078       .  S
C463        C464   1.416       .  A
C464       Br465   1.917       .  S
C469        C470   1.402       .  A
C469        C474   1.398       .  A
C469        H476   1.081       .  S
C470        C471   1.424       .  A
C471        C472   1.400       .  A
C471       Br478   1.917       .  S
C472        C473   1.406       .  A
C472        H477   1.083       .  S
C473        C474   1.421       .  A
C474       Br475   1.909       .  S
C479        C480   1.411       .  A
C479        C484   1.406       .  A
C479        H486   1.076       .  S
C480        C481   1.417       .  A
C481        C482   1.405       .  A
C481       Br488   1.923       .  S
C482        C483   1.410       .  A
C482        H487   1.077       .  S
C483        C484   1.417       .  A
C484       Br485   1.924       .  S
C489        C490   1.405       .  A
C489        C494   1.395       .  A
C489        H496   1.076       .  S
C490        C491   1.415       .  A
C491        C492   1.397       .  A
C491       Br498   1.915       .  S
C492        C493   1.406       .  A
C492        H497   1.076       .  S
C493        C494   1.413       .  A
C494       Br495   1.912       .  S
C499        C500   1.409       .  A
C499        C504   1.393       .  A
C499        H506   1.074       .  S
C500        C501   1.412       .  A
C501        C502   1.398       .  A
C501       Br508   1.924       .  S
C502        C503   1.411       .  A
C502        H507   1.076       .  S
C503        C504   1.412       .  A
C504       Br505   1.925       .  S
C509        C510   1.410       .  A
C509        C514   1.402       .  A
C509        H516   1.081       .  S
C510        C511   1.419       .  A
C511        C512   1.400       .  A
C511       Br518   1.910       .  S
C512        C513   1.406       .  A
C512        H517   1.081       .  S
C513        C514   1.421       .  A
C514       Br515   1.917       .  S
C519        C520   1.408       .  A
C519        C524   1.401       .  A
C519        H526   1.077       .  S
C520        C521   1.414       .  A
C521        C522   1.399       .  A
C521       Br528   1.921       .  S
C522        C523   1.411       .  A
C522        H527   1.073       .  S
C523        C524   1.413       .  A
C524       Br525   1.914       .  S
O529        V537   2.059       .  S
O529        C539   1.300       .  A
O530        V537   2.058       .  S
O530        C540   1.299       .  A
O531        V537   2.042       .  S
O531        C541   1.297       .  A
O532        V537   2.045       .  S
O532        C542   1.296       .  A
O533        V538   1.814       .  S
O533        C542   1.229       .  A
O534        V538   1.820       .  S
O534        C541   1.229       .  A
O535        V538   1.823       .  S
O535        C540   1.230       .  A
O536        V538   1.825       .  S
O536        C539   1.231       .  A
V537        V538   1.945       .  T
C539        C613   1.628       .  S
C540        C621   1.627       .  S
C541        C615   1.628       .  S
C542        C617   1.612       .  S
O543        V551   1.812       .  S
O543        C553   1.230       .  A
O544        V551   1.816       .  S
O544        C554   1.228       .  A
O545        V551   1.817       .  S
O545        C555   1.229       .  A
O546        V551   1.819       .  S
O546        C556   1.231       .  A
O547        V552   2.046       .  S
O547        C556   1.298       .  A
O548        V552   2.048       .  S
O548        C555   1.298       .  A
O549        V552   2.049       .  S
O549        C554   1.299       .  A
O550        V552   2.044       .  S
O550        C553   1.297       .  A
V551        V552   1.952       .  T
C553        C613   1.617       .  S
C554        C625   1.628       .  S
C555        C615   1.611       .  S
C556        C619   1.631       .  S
O557        V565   1.815       .  S
O557        C567   1.228       .  A
O558        V565   1.817       .  S
O558        C568   1.228       .  A
O559        V565   1.820       .  S
O559        C569   1.230       .  A
O560        V565   1.816       .  S
O560        C570   1.230       .  A
O561        V566   2.048       .  S
O561        C570   1.297       .  A
O562        V566   2.054       .  S
O562        C569   1.298       .  A
O563        V566   2.039       .  S
O563        C568   1.296       .  A
O564        V566   2.037       .  S
O564        C567   1.298       .  A
V565        V566   1.947       .  T
C567        C613   1.620       .  S
C568        C623   1.611       .  S
C569        C619   1.619       .  S
C570        C617   1.619       .  S
O571        V579   1.809       .  S
O571        C581   1.229       .  A
O572        V579   1.810       .  S
O572        C582   1.228       .  A
O573        V579   1.814       .  S
O573        C583   1.230       .  A
O574        V579   1.815       .  S
O574        C584   1.230       .  A
O575        V580   2.043       .  S
O575        C584   1.297       .  A
O576        V580   2.041       .  S
O576        C583   1.298       .  A
O577        V580   2.038       .  S
O577        C582   1.297       .  A
O578        V580   2.030       .  S
O578        C581   1.295       .  A
V579        V580   1.950       .  T
C581        C617   1.616       .  S
C582        C627   1.623       .  S
C583        C623   1.626       .  S
C584        C621   1.625       .  S
O585        V593   2.041       .  S
O585        C595   1.296       .  A
O586        V593   2.044       .  S
O586        C596   1.297       .  A
O587        V593   2.058       .  S
O587        C597   1.299       .  A
O588        V593   2.047       .  S
O588        C598   1.298       .  A
O589        V594   1.815       .  S
O589        C598   1.231       .  A
O590        V594   1.816       .  S
O590        C597   1.228       .  A
O591        V594   1.812       .  S
O591        C596   1.229       .  A
O592        V594   1.818       .  S
O592        C595   1.229       .  A
V593        V594   1.950       .  T
C595        C625   1.616       .  S
C596        C621   1.613       .  S
C597        C627   1.624       .  S
C598        C615   1.628       .  S
O599        V607   2.055       .  S
O599        C609   1.298       .  A
O600        V607   2.052       .  S
O600        C610   1.299       .  A
O601        V607   2.050       .  S
O601        C611   1.298       .  A
O602        V607   2.045       .  S
O602        C612   1.297       .  A
O603        V608   1.810       .  S
O603        C612   1.228       .  A
O604        V608   1.814       .  S
O604        C611   1.228       .  A
O605        V608   1.819       .  S
O605        C610   1.230       .  A
O606        V608   1.820       .  S
O606        C609   1.230       .  A
V607        V608   1.950       .  T
C609        C623   1.621       .  S
C610        C625   1.618       .  S
C611        C627   1.618       .  S
C612        C619   1.613       .  S
C613        C787   1.537       .  S
C614        C684   1.616       .  S
C614        C698   1.624       .  S
C614        C710   1.624       .  S
C614        C784   1.534       .  S
C615        C774   1.540       .  S
C616        C653   1.624       .  S
C616        C682   1.616       .  S
C616        C696   1.618       .  S
C616        C777   1.534       .  S
C617        C767   1.526       .  S
C618        C641   1.619       .  S
C618        C695   1.614       .  S
C618        C711   1.615       .  S
C618        C764   1.524       .  S
C619        C754   1.538       .  S
C620        C670   1.620       .  S
C620        C681   1.626       .  S
C620        C712   1.622       .  S
C620        C757   1.538       .  S
C621        C747   1.539       .  S
C622        C640   1.623       .  S
C622        C656   1.614       .  S
C622        C697   1.625       .  S
C622        C744   1.538       .  S
C623        C734   1.539       .  S
C624        C639   1.625       .  S
C624        C667   1.622       .  S
C624        C709   1.625       .  S
C624        C737   1.545       .  S
C625        C724   1.538       .  S
C626        C655   1.627       .  S
C626        C668   1.621       .  S
C626        C683   1.628       .  S
C626        C727   1.545       .  S
C627        C714   1.533       .  S
C628        C642   1.617       .  S
C628        C654   1.621       .  S
C628        C669   1.618       .  S
C628        C717   1.531       .  S
O629        V637   1.813   1_565  S
O629        C903   1.228       .  A
O630        C640   1.230       .  A
O631        V637   1.810   1_565  S
O631        C641   1.227       .  A
O632        C906   1.229       .  A
O633        C906   1.297       .  A
O634        V638   2.040   1_565  S
O634        C641   1.297       .  A
O635        C640   1.297       .  A
O636        V638   2.035   1_565  S
O636        C903   1.297       .  A
V637        V638   1.950       .  T
C639        O893   1.230       .  A
C639        O900   1.298       .  A
C642        O896   1.228   1_554  A
C642        O897   1.296       .  A
O643       V1707   1.818       .  S
O643        C653   1.230       .  A
O644        V651   1.820   1_455  S
O644        C918   1.228       .  A
O645       V1707   1.809       .  S
O645        C919   1.228       .  A
O646        V651   1.811   1_455  S
O646        C656   1.228       .  A
O647        V652   2.043   1_455  S
O647        C656   1.295       .  A
O648       V1972   2.039   1_554  S
O648        C655   1.296       .  A
O649        V652   2.052   1_455  S
O649        C918   1.298       .  A
O650       V1708   2.044       .  S
O650        C653   1.298       .  A
V651       O1699   1.818       .  S
V651       O1701   1.809       .  S
V651        V652   1.956       .  T
V652       O1968   2.044       .  S
V652       O1706   2.044       .  S
C654        O908   1.230       .  A
C654        O913   1.298       .  A
C655        O909   1.229   1_554  A
O657        C667   1.230       .  A
O658       V1721   1.822       .  S
O658        C668   1.229       .  A
O659        V665   1.814       .  S
O659        C669   1.230       .  A
O660       V1193   1.814       .  S
O660        C670   1.230       .  A
O661        C670   1.297       .  A
O662       V1722   2.042       .  S
O662        C669   1.296       .  A
O663        V666   2.058       .  S
O663        C668   1.301       .  A
O664       V1194   2.058   1_455  S
O664        C667   1.299       .  A
V665       O1714   1.822   1_455  S
V665       O1188   1.824   1_455  S
V665       V1722   1.946       .  T
V666       O1718   2.042       .  S
V666       O1192   2.060       .  S
V666       V1721   1.946       .  T
O671        C945   1.229       .  A
O672        V679   1.815       .  S
O672        C682   1.230       .  A
O673        V679   1.817       .  S
O673        C947   1.228       .  A
O674        C684   1.230       .  A
O675        C684   1.297       .  A
O676        V680   2.043       .  S
O676        C947   1.298       .  A
O677        V680   2.045       .  S
O677        C682   1.296       .  A
O678        C945   1.299       .  A
V679        V680   1.950       .  T
C681        O935   1.228   1_554  A
C681        O942   1.299       .  A
C683        O937   1.229       .  A
C683        O940   1.298       .  A
O685        C695   1.297       .  A
O686       V1749   2.048       .  S
O686        C696   1.298       .  A
O687        V693   2.054       .  S
O687        C697   1.298       .  A
O688       V1221   2.057       .  S
O688        C698   1.300       .  A
O689        C698   1.230       .  A
O690       V1750   1.824       .  S
O690        C697   1.231       .  A
O691        V694   1.821       .  S
O691        C696   1.228       .  A
O692       V1222   1.813   1_565  S
O692        C695   1.229       .  A
V693       O1742   2.048   1_455  S
V693       O1216   2.060   1_455  S
V693       V1750   1.944       .  T
V694       O1746   1.824       .  S
V694       O1220   1.814       .  S
V694       V1749   1.944       .  T
O699       V1763   2.040       .  S
O699        C973   1.297       .  A
O700        V707   2.045       .  S
O700        C710   1.297       .  A
O701       V1763   2.044       .  S
O701        C711   1.296       .  A
O702        V707   2.055       .  S
O702        C976   1.299       .  A
O703        V708   1.818       .  S
O703        C976   1.228       .  A
O704       V1764   1.814       .  S
O704        C711   1.231       .  A
O705        V708   1.814       .  S
O705        C710   1.228       .  A
O706       V1764   1.806       .  S
O706        C973   1.227       .  A
V707       O1755   2.040       .  S
V707       O1757   2.044       .  S
V707        V708   1.951       .  T
V708       O1760   1.814       .  S
V708       O1762   1.806       .  S
C709        O963   1.297       .  A
C709        O970   1.229   1_554  A
C712        O966   1.298       .  A
C712        O967   1.229       .  A
C713        C714   1.410       .  A
C713        C718   1.398       .  A
C713        H720   1.073       .  S
C714        C715   1.412       .  A
C715        C716   1.397       .  A
C715       Br722   1.913       .  S
C716        C717   1.409       .  A
C716        H721   1.076       .  S
C717        C718   1.411       .  A
C718       Br719   1.914       .  S
C723        C724   1.404       .  A
C723        C728   1.402       .  A
C723        H730   1.080       .  S
C724        C725   1.420       .  A
C725        C726   1.398       .  A
C725       Br732   1.915       .  S
C726        C727   1.407       .  A
C726        H731   1.081       .  S
C727        C728   1.423       .  A
C728       Br729   1.910       .  S
C733        C734   1.404       .  A
C733        C738   1.400       .  A
C733        H740   1.076       .  S
C734        C735   1.421       .  A
C735        C736   1.401       .  A
C735       Br742   1.918       .  S
C736        C737   1.409       .  A
C736        H741   1.080       .  S
C737        C738   1.418       .  A
C738       Br739   1.906       .  S
C743        C744   1.411       .  A
C743        C748   1.404       .  A
C743        H750   1.075       .  S
C744        C745   1.415       .  A
C745        C746   1.403       .  A
C745       Br752   1.924       .  S
C746        C747   1.412       .  A
C746        H751   1.077       .  S
C747        C748   1.415       .  A
C748       Br749   1.923       .  S
C753        C754   1.404       .  A
C753        C758   1.399       .  A
C753        H760   1.077       .  S
C754        C755   1.420       .  A
C755        C756   1.403       .  A
C755       Br762   1.916       .  S
C756        C757   1.407       .  A
C756        H761   1.078       .  S
C757        C758   1.415       .  A
C758       Br759   1.907       .  S
C763        C764   1.412       .  A
C763        C768   1.400       .  A
C763        H770   1.075       .  S
C764        C765   1.411       .  A
C765        C766   1.393       .  A
C765       Br772   1.926       .  S
C766        C767   1.410       .  A
C766        H771   1.074       .  S
C767        C768   1.412       .  A
C768       Br769   1.925       .  S
C773        C774   1.410       .  A
C773        C778   1.401       .  A
C773        H780   1.082       .  S
C774        C775   1.420       .  A
C775        C776   1.397       .  A
C775       Br782   1.911       .  S
C776        C777   1.404       .  A
C776        H781   1.081       .  S
C777        C778   1.420       .  A
C778       Br779   1.917       .  S
C783        C784   1.411       .  A
C783        C788   1.403       .  A
C783        H790   1.077       .  S
C784        C785   1.412       .  A
C785        C786   1.398       .  A
C785       Br792   1.917       .  S
C786        C787   1.410       .  A
C786        H791   1.074       .  S
C787        C788   1.414       .  A
C788       Br789   1.916       .  S
O793        V801   2.062       .  S
O793        C803   1.300       .  A
O794        V801   2.053       .  S
O794        C804   1.298       .  A
O795        V801   2.040       .  S
O795        C805   1.297       .  A
O796        V801   2.042       .  S
O796        C806   1.295       .  A
O797        V802   1.812       .  S
O797        C806   1.230       .  A
O798        V802   1.818       .  S
O798        C805   1.229       .  A
O799        V802   1.817       .  S
O799        C804   1.230       .  A
O800        V802   1.825       .  S
O800        C803   1.231       .  A
V801        V802   1.948       .  T
C803        C877   1.633       .  S
C804        C885   1.622       .  S
C805        C879   1.628       .  S
C806        C881   1.613       .  S
O807        V815   1.810       .  S
O807        C817   1.229       .  A
O808        V815   1.814       .  S
O808        C818   1.229       .  A
O809        V815   1.822       .  S
O809        C819   1.230       .  A
O810        V815   1.819       .  S
O810        C820   1.232       .  A
O811        V816   2.042       .  S
O811        C820   1.298       .  A
O812        V816   2.056       .  S
O812        C819   1.299       .  A
O813        V816   2.044       .  S
O813        C818   1.296       .  A
O814        V816   2.043       .  S
O814        C817   1.298       .  A
V815        V816   1.953       .  T
C817        C877   1.617       .  S
C818        C889   1.626       .  S
C819        C879   1.621       .  S
C820        C883   1.627       .  S
O821        V829   1.817       .  S
O821        C831   1.228       .  A
O822        V829   1.810       .  S
O822        C832   1.229       .  A
O823        V829   1.817       .  S
O823        C833   1.230       .  A
O824        V829   1.811       .  S
O824        C834   1.227       .  A
O825        V830   2.047       .  S
O825        C834   1.298       .  A
O826        V830   2.049       .  S
O826        C833   1.297       .  A
O827        V830   2.038       .  S
O827        C832   1.295       .  A
O828        V830   2.042       .  S
O828        C831   1.298       .  A
V829        V830   1.951       .  T
C831        C877   1.621       .  S
C832        C887   1.607       .  S
C833        C883   1.616       .  S
C834        C881   1.613       .  S
O835        V843   1.816       .  S
O835        C845   1.229       .  A
O836        V843   1.814       .  S
O836        C846   1.230       .  A
O837        V843   1.807       .  S
O837        C847   1.229       .  A
O838        V843   1.809       .  S
O838        C848   1.227       .  A
O839        V844   2.037       .  S
O839        C848   1.297       .  A
O840        V844   2.030       .  S
O840        C847   1.295       .  A
O841        V844   2.040       .  S
O841        C846   1.298       .  A
O842        V844   2.042       .  S
O842        C845   1.297       .  A
V843        V844   1.951       .  T
C845        C881   1.623       .  S
C846        C891   1.623       .  S
C847        C887   1.618       .  S
C848        C885   1.620       .  S
O849        V857   2.043       .  S
O849        C859   1.297       .  A
O850        V857   2.049       .  S
O850        C860   1.297       .  A
O851        V857   2.053       .  S
O851        C861   1.298       .  A
O852        V857   2.054       .  S
O852        C862   1.300       .  A
O853        V858   1.820       .  S
O853        C862   1.230       .  A
O854        V858   1.817       .  S
O854        C861   1.230       .  A
O855        V858   1.813       .  S
O855        C860   1.229       .  A
O856        V858   1.810       .  S
O856        C859   1.229       .  A
V857        V858   1.951       .  T
C859        C889   1.612       .  S
C860        C885   1.617       .  S
C861        C891   1.622       .  S
C862        C879   1.634       .  S
O863        V871   2.060       .  S
O863        C873   1.299       .  A
O864        V871   2.056       .  S
O864        C874   1.300       .  A
O865        V871   2.049       .  S
O865        C875   1.299       .  A
O866        V871   2.043       .  S
O866        C876   1.298       .  A
O867        V872   1.818       .  S
O867        C876   1.229       .  A
O868        V872   1.822       .  S
O868        C875   1.228       .  A
O869        V872   1.823       .  S
O869        C874   1.230       .  A
O870        V872   1.827       .  S
O870        C873   1.232       .  A
V871        V872   1.942       .  T
C873        C887   1.628       .  S
C874        C889   1.623       .  S
C875        C891   1.619       .  S
C876        C883   1.614       .  S
C877       C1051   1.539       .  S
C878        C948   1.613       .  S
C878        C962   1.627       .  S
C878        C974   1.625       .  S
C878       C1048   1.538       .  S
C879       C1038   1.551       .  S
C880        C917   1.629       .  S
C880        C946   1.624       .  S
C880        C960   1.618       .  S
C880       C1041   1.545       .  S
C881       C1031   1.524       .  S
C882        C905   1.624       .  S
C882        C959   1.615       .  S
C882        C975   1.613       .  S
C882       C1028   1.524       .  S
C883       C1018   1.538       .  S
C884        C934   1.628       .  S
C884        C945   1.628       .  S
C884        C976   1.618       .  S
C884       C1021   1.545       .  S
C885       C1011   1.530       .  S
C886        C904   1.614       .  S
C886        C920   1.614       .  S
C886        C961   1.622       .  S
C886       C1008   1.529       .  S
C887        C998   1.534       .  S
C888        C903   1.619       .  S
C888        C931   1.628       .  S
C888        C973   1.614       .  S
C888       C1001   1.532       .  S
C889        C988   1.533       .  S
C890        C919   1.615       .  S
C890        C932   1.623       .  S
C890        C947   1.622       .  S
C890        C991   1.532       .  S
C891        C978   1.537       .  S
C892        C906   1.622       .  S
C892        C918   1.615       .  S
C892        C933   1.631       .  S
C892        C981   1.541       .  S
O893        V901   1.816   1_554  S
O894        C904   1.229       .  A
O895        V901   1.810       .  S
O895        C905   1.227       .  A
O898        V902   2.044       .  S
O898        C905   1.298       .  A
O899        C904   1.295       .  A
O900        V902   2.043   1_554  S
V901        V902   1.950       .  T
O907       V1971   1.819       .  S
O907        C917   1.230       .  A
O908        V915   1.821   1_554  S
O909       V1971   1.814       .  S
O910        V915   1.810       .  S
O910        C920   1.229       .  A
O911        V916   2.039       .  S
O911        C920   1.295       .  A
O912       V1708   2.044       .  S
O912        C919   1.297       .  A
O913        V916   2.053   1_554  S
O914       V1972   2.051       .  S
O914        C917   1.300       .  A
V915       O1963   1.819   1_455  S
V915       O1965   1.814   1_455  S
V915        V916   1.952       .  T
V916       O1704   2.039   1_456  S
V916       O1970   2.051   1_455  S
O921        C931   1.230       .  A
O922       V1985   1.820       .  S
O922        C932   1.231       .  A
O923        V929   1.821   1_455  S
O923        C933   1.229       .  A
O924       V1457   1.819   1_565  S
O924        C934   1.231       .  A
O925        C934   1.297       .  A
O926       V1986   2.044   1_455  S
O926        C933   1.296       .  A
O927        V930   2.052       .  S
O927        C932   1.298       .  A
O928       V1458   2.060   1_465  S
O928        C931   1.298       .  A
V929       O1978   1.820       .  S
V929       O1452   1.810       .  S
V929       V1986   1.948       .  T
V930       O1982   2.044       .  S
V930       O1456   2.060       .  S
V930       V1985   1.948       .  T
O936        V943   1.819       .  S
O936        C946   1.231       .  A
O937        V943   1.813   1_554  S
O938        C948   1.229       .  A
O939        C948   1.297       .  A
O940        V944   2.047   1_554  S
O941        V944   2.052       .  S
O941        C946   1.297       .  A
V943        V944   1.955       .  T
O949        C959   1.298       .  A
O950       V2013   2.046       .  S
O950        C960   1.298       .  A
O951        V957   2.052       .  S
O951        C961   1.297       .  A
O952       V1485   2.061       .  S
O952        C962   1.300       .  A
O953        C962   1.230       .  A
O954       V2014   1.823       .  S
O954        C961   1.231       .  A
O955        V958   1.821       .  S
O955        C960   1.227       .  A
O956       V1486   1.814       .  S
O956        C959   1.229       .  A
V957       O2006   2.046   1_455  S
V957       O1480   2.058   1_455  S
V957       V2014   1.944       .  T
V958       O2010   1.823       .  S
V958       O1484   1.812       .  S
V958       V2013   1.944       .  T
O963       V2027   2.039   1_454  S
O964        V971   2.039       .  S
O964        C974   1.297       .  A
O965       V2027   2.044   1_455  S
O965        C975   1.296       .  A
O966        V971   2.054   1_554  S
O967        V972   1.818   1_554  S
O968       V2028   1.811   1_455  S
O968        C975   1.230       .  A
O969        V972   1.814       .  S
O969        C974   1.230       .  A
O970       V2028   1.814   1_455  S
V971       O2019   2.039   1_556  S
V971       O2021   2.044       .  S
V971        V972   1.950       .  T
V972       O2024   1.811       .  S
V972       O2026   1.814       .  S
C977        C978   1.405       .  A
C977        C982   1.398       .  A
C977        H984   1.081       .  S
C978        C979   1.420       .  A
C979        C980   1.400       .  A
C979       Br986   1.916       .  S
C980        C981   1.411       .  A
C980        H985   1.081       .  S
C981        C982   1.416       .  A
C982       Br983   1.908       .  S
C987        C988   1.407       .  A
C987        C992   1.400       .  A
C987        H994   1.078       .  S
C988        C989   1.415       .  A
C989        C990   1.399       .  A
C989       Br996   1.914       .  S
C990        C991   1.407       .  A
C990        H995   1.076       .  S
C991        C992   1.414       .  A
C992       Br993   1.913       .  S
C997        C998   1.409       .  A
C997       C1002   1.397       .  A
C997       H1004   1.073       .  S
C998        C999   1.412       .  A
C999       C1000   1.398       .  A
C999      Br1006   1.907       .  S
C1000      C1001   1.408       .  A
C1000      H1005   1.073       .  S
C1001      C1002   1.409       .  A
C1002     Br1003   1.905       .  S
C1007      C1008   1.412       .  A
C1007      C1012   1.399       .  A
C1007      H1014   1.076       .  S
C1008      C1009   1.411       .  A
C1009      C1010   1.397       .  A
C1009     Br1016   1.924       .  S
C1010      C1011   1.411       .  A
C1010      H1015   1.074       .  S
C1011      C1012   1.412       .  A
C1012     Br1013   1.924       .  S
C1017      C1018   1.403       .  A
C1017      C1022   1.400       .  A
C1017      H1024   1.079       .  S
C1018      C1019   1.420       .  A
C1019      C1020   1.400       .  A
C1019     Br1026   1.911       .  S
C1020      C1021   1.408       .  A
C1020      H1025   1.081       .  S
C1021      C1022   1.420       .  A
C1022     Br1023   1.903       .  S
C1027      C1028   1.408       .  A
C1027      C1032   1.396       .  A
C1027      H1034   1.076       .  S
C1028      C1029   1.414       .  A
C1029      C1030   1.398       .  A
C1029     Br1036   1.925       .  S
C1030      C1031   1.408       .  A
C1030      H1035   1.076       .  S
C1031      C1032   1.414       .  A
C1032     Br1033   1.925       .  S
C1037      C1038   1.408       .  A
C1037      C1042   1.405       .  A
C1037      H1044   1.082       .  S
C1038      C1039   1.425       .  A
C1039      C1040   1.402       .  A
C1039     Br1046   1.908       .  S
C1040      C1041   1.402       .  A
C1040      H1045   1.082       .  S
C1041      C1042   1.425       .  A
C1042     Br1043   1.917       .  S
C1047      C1048   1.409       .  A
C1047      C1052   1.399       .  A
C1047      H1054   1.075       .  S
C1048      C1049   1.414       .  A
C1049      C1050   1.404       .  A
C1049     Br1056   1.920       .  S
C1050      C1051   1.412       .  A
C1050      H1055   1.075       .  S
C1051      C1052   1.412       .  A
C1052     Br1053   1.911       .  S
O1057      V1065   2.058       .  S
O1057      C1067   1.299       .  A
O1058      V1065   2.052       .  S
O1058      C1068   1.299       .  A
O1059      V1065   2.041       .  S
O1059      C1069   1.297       .  A
O1060      V1065   2.039       .  S
O1060      C1070   1.295       .  A
O1061      V1066   1.810       .  S
O1061      C1070   1.230       .  A
O1062      V1066   1.819       .  S
O1062      C1069   1.229       .  A
O1063      V1066   1.815       .  S
O1063      C1068   1.229       .  A
O1064      V1066   1.822       .  S
O1064      C1067   1.231       .  A
V1065      V1066   1.949       .  T
C1067      C1141   1.629       .  S
C1068      C1149   1.621       .  S
C1069      C1143   1.629       .  S
C1070      C1145   1.609       .  S
O1071      V1079   1.807       .  S
O1071      C1081   1.228       .  A
O1072      V1079   1.814       .  S
O1072      C1082   1.229       .  A
O1073      V1079   1.822       .  S
O1073      C1083   1.230       .  A
O1074      V1079   1.822       .  S
O1074      C1084   1.233       .  A
O1075      V1080   2.044       .  S
O1075      C1084   1.297       .  A
O1076      V1080   2.056       .  S
O1076      C1083   1.299       .  A
O1077      V1080   2.044       .  S
O1077      C1082   1.297       .  A
O1078      V1080   2.041       .  S
O1078      C1081   1.297       .  A
V1079      V1080   1.954       .  T
C1081      C1141   1.613       .  S
C1082      C1153   1.626       .  S
C1083      C1143   1.621       .  S
C1084      C1147   1.628       .  S
O1085      V1093   1.815       .  S
O1085      C1095   1.227       .  A
O1086      V1093   1.810       .  S
O1086      C1096   1.229       .  A
O1087      V1093   1.819       .  S
O1087      C1097   1.229       .  A
O1088      V1093   1.811       .  S
O1088      C1098   1.227       .  A
O1089      V1094   2.048       .  S
O1089      C1098   1.298       .  A
O1090      V1094   2.049       .  S
O1090      C1097   1.297       .  A
O1091      V1094   2.040       .  S
O1091      C1096   1.296       .  A
O1092      V1094   2.042       .  S
O1092      C1095   1.298       .  A
V1093      V1094   1.950       .  T
C1095      C1141   1.619       .  S
C1096      C1151   1.608       .  S
C1097      C1147   1.616       .  S
C1098      C1145   1.612       .  S
O1099      V1107   1.814       .  S
O1099      C1109   1.229       .  A
O1100      V1107   1.813       .  S
O1100      C1110   1.230       .  A
O1101      V1107   1.806       .  S
O1101      C1111   1.228       .  A
O1102      V1107   1.811       .  S
O1102      C1112   1.227       .  A
O1103      V1108   2.039       .  S
O1103      C1112   1.297       .  A
O1104      V1108   2.027       .  S
O1104      C1111   1.295       .  A
O1105      V1108   2.043       .  S
O1105      C1110   1.299       .  A
O1106      V1108   2.042       .  S
O1106      C1109   1.297       .  A
V1107      V1108   1.949       .  T
C1109      C1145   1.623       .  S
C1110      C1155   1.623       .  S
C1111      C1151   1.614       .  S
C1112      C1149   1.619       .  S
O1113      V1121   2.046       .  S
O1113      C1123   1.297       .  A
O1114      V1121   2.051       .  S
O1114      C1124   1.297       .  A
O1115      V1121   2.052       .  S
O1115      C1125   1.298       .  A
O1116      V1121   2.054       .  S
O1116      C1126   1.300       .  A
O1117      V1122   1.819       .  S
O1117      C1126   1.230       .  A
O1118      V1122   1.816       .  S
O1118      C1125   1.230       .  A
O1119      V1122   1.815       .  S
O1119      C1124   1.230       .  A
O1120      V1122   1.813       .  S
O1120      C1123   1.229       .  A
V1121      V1122   1.951       .  T
C1123      C1153   1.616       .  S
C1124      C1149   1.621       .  S
C1125      C1155   1.620       .  S
C1126      C1143   1.634       .  S
O1127      V1135   2.059       .  S
O1127      C1137   1.299       .  A
O1128      V1135   2.055       .  S
O1128      C1138   1.300       .  A
O1129      V1135   2.046       .  S
O1129      C1139   1.299       .  A
O1130      V1135   2.046       .  S
O1130      C1140   1.298       .  A
O1131      V1136   1.821       .  S
O1131      C1140   1.230       .  A
O1132      V1136   1.822       .  S
O1132      C1139   1.229       .  A
O1133      V1136   1.823       .  S
O1133      C1138   1.231       .  A
O1134      V1136   1.825       .  S
O1134      C1137   1.232       .  A
V1135      V1136   1.942       .  T
C1137      C1151   1.629       .  S
C1138      C1153   1.623       .  S
C1139      C1155   1.619       .  S
C1140      C1147   1.619       .  S
C1141      C1315   1.530       .  S
C1142      C1212   1.609       .  S
C1142      C1226   1.625       .  S
C1142      C1238   1.623       .  S
C1142      C1312   1.530       .  S
C1143      C1302   1.552       .  S
C1144      C1181   1.628       .  S
C1144      C1210   1.621       .  S
C1144      C1224   1.620       .  S
C1144      C1305   1.545       .  S
C1145      C1295   1.521       .  S
C1146      C1169   1.622       .  S
C1146      C1223   1.615       .  S
C1146      C1239   1.613       .  S
C1146      C1292   1.522       .  S
C1147      C1282   1.544       .  S
C1148      C1198   1.634       .  S
C1148      C1209   1.631       .  S
C1148      C1240   1.614       .  S
C1148      C1285   1.549       .  S
C1149      C1275   1.533       .  S
C1150      C1168   1.618       .  S
C1150      C1184   1.618       .  S
C1150      C1225   1.618       .  S
C1150      C1272   1.533       .  S
C1151      C1262   1.533       .  S
C1152      C1167   1.615       .  S
C1152      C1195   1.630       .  S
C1152      C1237   1.613       .  S
C1152      C1265   1.532       .  S
C1153      C1252   1.537       .  S
C1154      C1183   1.618       .  S
C1154      C1196   1.622       .  S
C1154      C1211   1.625       .  S
C1154      C1255   1.537       .  S
C1155      C1242   1.538       .  S
C1156      C1170   1.623       .  S
C1156      C1182   1.616       .  S
C1156      C1197   1.629       .  S
C1156      C1245   1.542       .  S
O1157      V1165   1.815       .  S
O1157      C1431   1.230       .  A
O1158      V1693   1.814       .  S
O1158      C1168   1.230       .  A
O1159      V1165   1.808       .  S
O1159      C1169   1.227       .  A
O1160      V1693   1.811       .  S
O1160      C1434   1.229       .  A
O1161      V1694   2.040       .  S
O1161      C1434   1.297       .  A
O1162      V1166   2.043       .  S
O1162      C1169   1.297       .  A
O1163      V1694   2.033       .  S
O1163      C1168   1.295       .  A
O1164      V1166   2.045       .  S
O1164      C1431   1.298       .  A
V1165      O1686   1.819       .  S
V1165      O1688   1.811       .  S
V1165      V1166   1.952       .  T
V1166      O1689   2.041       .  S
V1166      O1691   2.041       .  S
C1167      O1421   1.228       .  A
C1167      O1428   1.296       .  A
C1170      O1424   1.229   1_554  A
C1170      O1425   1.297       .  A
O1171      C1181   1.231       .  A
O1172      V1179   1.825       .  S
O1172      C1446   1.229       .  A
O1173      C1447   1.228       .  A
O1174      V1179   1.815       .  S
O1174      C1184   1.229       .  A
O1175      V1180   2.047       .  S
O1175      C1184   1.296       .  A
O1176      C1183   1.298       .  A
O1177      V1180   2.058       .  S
O1177      C1446   1.299       .  A
O1178      C1181   1.299       .  A
V1179      V1180   1.952       .  T
C1182      O1436   1.229       .  A
C1182      O1441   1.298       .  A
C1183      O1437   1.229   1_554  A
O1185      V1721   1.828       .  S
O1185      C1195   1.232       .  A
O1186      C1196   1.231       .  A
O1187      V1193   1.819   1_545  S
O1187      C1197   1.229       .  A
O1188      C1198   1.230       .  A
O1189      V1722   2.050   1_655  S
O1189      C1198   1.298       .  A
O1190      C1197   1.296       .  A
O1191      V1194   2.051   1_545  S
O1191      C1196   1.298       .  A
O1192      C1195   1.299       .  A
V1193      O1713   1.822       .  S
V1194      O1717   2.041       .  S
O1199      V1735   1.814       .  S
O1199      C1473   1.227       .  A
O1200      V1207   1.820       .  S
O1200      C1210   1.231       .  A
O1201      V1207   1.816       .  S
O1201      C1475   1.229       .  A
O1202      V1735   1.809       .  S
O1202      C1212   1.228       .  A
O1203      V1736   2.041       .  S
O1203      C1212   1.297       .  A
O1204      V1208   2.048       .  S
O1204      C1475   1.298       .  A
O1205      V1208   2.050       .  S
O1205      C1210   1.297       .  A
O1206      V1736   2.045       .  S
O1206      C1473   1.298       .  A
V1207      O1727   1.815   1_545  S
V1207      O1730   1.813   1_545  S
V1207      V1208   1.952       .  T
V1208      O1731   2.045   1_545  S
V1208      O1734   2.048   1_545  S
C1209      O1463   1.231   1_554  A
C1209      O1470   1.298       .  A
C1211      O1465   1.229       .  A
C1211      O1468   1.298       .  A
O1213      V1749   2.048       .  S
O1213      C1223   1.298       .  A
O1214      C1224   1.298       .  A
O1215      V1221   2.048   1_545  S
O1215      C1225   1.297       .  A
O1216      C1226   1.300       .  A
O1217      V1750   1.822   1_655  S
O1217      C1226   1.230       .  A
O1218      C1225   1.231       .  A
O1219      V1222   1.821   1_655  S
O1219      C1224   1.229       .  A
O1220      C1223   1.229       .  A
V1221      O1741   2.047       .  S
V1222      O1745   1.821   1_445  S
O1227      C1501   1.295       .  A
O1228      V1235   2.038       .  S
O1228      C1238   1.296       .  A
O1229      C1239   1.296       .  A
O1230      V1235   2.053       .  S
O1230      C1504   1.298       .  A
O1231      V1236   1.815       .  S
O1231      C1504   1.228       .  A
O1232      C1239   1.229       .  A
O1233      V1236   1.811       .  S
O1233      C1238   1.229       .  A
O1234      C1501   1.228       .  A
V1235      V1236   1.950       .  T
C1237      O1491   1.297       .  A
C1237      O1498   1.227       .  A
C1240      O1494   1.299       .  A
C1240      O1495   1.228       .  A
C1241      C1242   1.405       .  A
C1241      C1246   1.400       .  A
C1241      H1248   1.080       .  S
C1242      C1243   1.420       .  A
C1243      C1244   1.400       .  A
C1243     Br1250   1.916       .  S
C1244      C1245   1.409       .  A
C1244      H1249   1.082       .  S
C1245      C1246   1.419       .  A
C1246     Br1247   1.910       .  S
C1251      C1252   1.408       .  A
C1251      C1256   1.402       .  A
C1251      H1258   1.076       .  S
C1252      C1253   1.416       .  A
C1253      C1254   1.401       .  A
C1253     Br1260   1.916       .  S
C1254      C1255   1.408       .  A
C1254      H1259   1.077       .  S
C1255      C1256   1.415       .  A
C1256     Br1257   1.914       .  S
C1261      C1262   1.411       .  A
C1261      C1266   1.396       .  A
C1261      H1268   1.075       .  S
C1262      C1263   1.408       .  A
C1263      C1264   1.397       .  A
C1263     Br1270   1.910       .  S
C1264      C1265   1.411       .  A
C1264      H1269   1.075       .  S
C1265      C1266   1.409       .  A
C1266     Br1267   1.912       .  S
C1271      C1272   1.411       .  A
C1271      C1276   1.399       .  A
C1271      H1278   1.076       .  S
C1272      C1273   1.413       .  A
C1273      C1274   1.400       .  A
C1273     Br1280   1.925       .  S
C1274      C1275   1.413       .  A
C1274      H1279   1.073       .  S
C1275      C1276   1.412       .  A
C1276     Br1277   1.923       .  S
C1281      C1282   1.406       .  A
C1281      C1286   1.405       .  A
C1281      H1288   1.079       .  S
C1282      C1283   1.420       .  A
C1283      C1284   1.401       .  A
C1283     Br1290   1.912       .  S
C1284      C1285   1.409       .  A
C1284      H1289   1.081       .  S
C1285      C1286   1.422       .  A
C1286     Br1287   1.908       .  S
C1291      C1292   1.408       .  A
C1291      C1296   1.396       .  A
C1291      H1298   1.076       .  S
C1292      C1293   1.414       .  A
C1293      C1294   1.395       .  A
C1293     Br1300   1.925       .  S
C1294      C1295   1.407       .  A
C1294      H1299   1.077       .  S
C1295      C1296   1.414       .  A
C1296     Br1297   1.926       .  S
C1301      C1302   1.409       .  A
C1301      C1306   1.405       .  A
C1301      H1308   1.082       .  S
C1302      C1303   1.425       .  A
C1303      C1304   1.402       .  A
C1303     Br1310   1.910       .  S
C1304      C1305   1.404       .  A
C1304      H1309   1.081       .  S
C1305      C1306   1.423       .  A
C1306     Br1307   1.915       .  S
C1311      C1312   1.408       .  A
C1311      C1316   1.396       .  A
C1311      H1318   1.076       .  S
C1312      C1313   1.414       .  A
C1313      C1314   1.400       .  A
C1313     Br1320   1.919       .  S
C1314      C1315   1.410       .  A
C1314      H1319   1.075       .  S
C1315      C1316   1.411       .  A
C1316     Br1317   1.915       .  S
O1321      V1329   2.057       .  S
O1321      C1331   1.299       .  A
O1322      V1329   2.055       .  S
O1322      C1332   1.300       .  A
O1323      V1329   2.047       .  S
O1323      C1333   1.298       .  A
O1324      V1329   2.043       .  S
O1324      C1334   1.296       .  A
O1325      V1330   1.812       .  S
O1325      C1334   1.229       .  A
O1326      V1330   1.822       .  S
O1326      C1333   1.230       .  A
O1327      V1330   1.821       .  S
O1327      C1332   1.230       .  A
O1328      V1330   1.824       .  S
O1328      C1331   1.232       .  A
V1329      V1330   1.947       .  T
C1331      C1405   1.627       .  S
C1332      C1413   1.626       .  S
C1333      C1407   1.634       .  S
C1334      C1409   1.611       .  S
O1335      V1343   1.811       .  S
O1335      C1345   1.230       .  A
O1336      V1343   1.817       .  S
O1336      C1346   1.229       .  A
O1337      V1343   1.817       .  S
O1337      C1347   1.228       .  A
O1338      V1343   1.816       .  S
O1338      C1348   1.231       .  A
O1339      V1344   2.039       .  S
O1339      C1348   1.296       .  A
O1340      V1344   2.051       .  S
O1340      C1347   1.299       .  A
O1341      V1344   2.050       .  S
O1341      C1346   1.298       .  A
O1342      V1344   2.042       .  S
O1342      C1345   1.297       .  A
V1343      V1344   1.950       .  T
C1345      C1405   1.615       .  S
C1346      C1417   1.629       .  S
C1347      C1407   1.613       .  S
C1348      C1411   1.624       .  S
O1349      V1357   1.817       .  S
O1349      C1359   1.228       .  A
O1350      V1357   1.818       .  S
O1350      C1360   1.227       .  A
O1351      V1357   1.817       .  S
O1351      C1361   1.229       .  A
O1352      V1357   1.817       .  S
O1352      C1362   1.229       .  A
O1353      V1358   2.049       .  S
O1353      C1362   1.298       .  A
O1354      V1358   2.053       .  S
O1354      C1361   1.298       .  A
O1355      V1358   2.036       .  S
O1355      C1360   1.296       .  A
O1356      V1358   2.038       .  S
O1356      C1359   1.298       .  A
V1357      V1358   1.945       .  T
C1359      C1405   1.619       .  S
C1360      C1415   1.607       .  S
C1361      C1411   1.618       .  S
C1362      C1409   1.618       .  S
O1363      V1371   1.811       .  S
O1363      C1373   1.229       .  A
O1364      V1371   1.811       .  S
O1364      C1374   1.229       .  A
O1365      V1371   1.814       .  S
O1365      C1375   1.231       .  A
O1366      V1371   1.816       .  S
O1366      C1376   1.229       .  A
O1367      V1372   2.050       .  S
O1367      C1376   1.298       .  A
O1368      V1372   2.039       .  S
O1368      C1375   1.297       .  A
O1369      V1372   2.042       .  S
O1369      C1374   1.299       .  A
O1370      V1372   2.035       .  S
O1370      C1373   1.295       .  A
V1371      V1372   1.954       .  T
C1373      C1409   1.618       .  S
C1374      C1419   1.624       .  S
C1375      C1415   1.625       .  S
C1376      C1413   1.630       .  S
O1377      V1385   2.041       .  S
O1377      C1387   1.295       .  A
O1378      V1385   2.048       .  S
O1378      C1388   1.297       .  A
O1379      V1385   2.054       .  S
O1379      C1389   1.298       .  A
O1380      V1385   2.048       .  S
O1380      C1390   1.299       .  A
O1381      V1386   1.812       .  S
O1381      C1390   1.230       .  A
O1382      V1386   1.817       .  S
O1382      C1389   1.229       .  A
O1383      V1386   1.812       .  S
O1383      C1388   1.229       .  A
O1384      V1386   1.809       .  S
O1384      C1387   1.230       .  A
V1385      V1386   1.954       .  T
C1387      C1417   1.614       .  S
C1388      C1413   1.617       .  S
C1389      C1419   1.624       .  S
C1390      C1407   1.627       .  S
O1391      V1399   2.054       .  S
O1391      C1401   1.297       .  A
O1392      V1399   2.053       .  S
O1392      C1402   1.300       .  A
O1393      V1399   2.051       .  S
O1393      C1403   1.299       .  A
O1394      V1399   2.040       .  S
O1394      C1404   1.296       .  A
O1395      V1400   1.808       .  S
O1395      C1404   1.228       .  A
O1396      V1400   1.821       .  S
O1396      C1403   1.226       .  A
O1397      V1400   1.816       .  S
O1397      C1402   1.229       .  A
O1398      V1400   1.826       .  S
O1398      C1401   1.232       .  A
V1399      V1400   1.946       .  T
C1401      C1415   1.624       .  S
C1402      C1417   1.616       .  S
C1403      C1419   1.619       .  S
C1404      C1411   1.608       .  S
C1405      C1579   1.536       .  S
C1406      C1476   1.614       .  S
C1406      C1490   1.623       .  S
C1406      C1502   1.627       .  S
C1406      C1576   1.531       .  S
C1407      C1566   1.543       .  S
C1408      C1445   1.624       .  S
C1408      C1474   1.617       .  S
C1408      C1488   1.621       .  S
C1408      C1569   1.538       .  S
C1409      C1559   1.524       .  S
C1410      C1433   1.617       .  S
C1410      C1487   1.614       .  S
C1410      C1503   1.615       .  S
C1410      C1556   1.525       .  S
C1411      C1546   1.526       .  S
C1412      C1462   1.615       .  S
C1412      C1473   1.622       .  S
C1412      C1504   1.620       .  S
C1412      C1549   1.526       .  S
C1413      C1539   1.541       .  S
C1414      C1432   1.625       .  S
C1414      C1448   1.616       .  S
C1414      C1489   1.623       .  S
C1414      C1536   1.542       .  S
C1415      C1526   1.539       .  S
C1416      C1431   1.627       .  S
C1416      C1459   1.622       .  S
C1416      C1501   1.624       .  S
C1416      C1529   1.544       .  S
C1417      C1516   1.531       .  S
C1418      C1447   1.616       .  S
C1418      C1460   1.619       .  S
C1418      C1475   1.626       .  S
C1418      C1519   1.529       .  S
C1419      C1506   1.536       .  S
C1420      C1434   1.620       .  S
C1420      C1446   1.621       .  S
C1420      C1461   1.629       .  S
C1420      C1509   1.545       .  S
O1421      V1429   1.815   1_554  S
O1422      V1957   1.820   1_545  S
O1422      C1432   1.231       .  A
O1423      V1429   1.810       .  S
O1423      C1433   1.227       .  A
O1424      V1957   1.813   1_545  S
O1425      V1958   2.043   1_544  S
O1426      V1430   2.034       .  S
O1426      C1433   1.297       .  A
O1427      V1958   2.044   1_545  S
O1427      C1432   1.297       .  A
O1428      V1430   2.030   1_554  S
V1429      O1950   1.813       .  S
V1429      O1952   1.812       .  S
V1429      V1430   1.949       .  T
V1430      O1953   2.036   1_556  S
V1430      O1955   2.032       .  S
O1435      C1445   1.230       .  A
O1436      V1443   1.821   1_554  S
O1438      V1443   1.816       .  S
O1438      C1448   1.230       .  A
O1439      V1444   2.046       .  S
O1439      C1448   1.296       .  A
O1440      C1447   1.298       .  A
O1441      V1444   2.052   1_554  S
O1442      C1445   1.299       .  A
V1443      V1444   1.954       .  T
O1449      V1985   1.823       .  S
O1449      C1459   1.229       .  A
O1450      C1460   1.229       .  A
O1451      V1457   1.819       .  S
O1451      C1461   1.231       .  A
O1452      C1462   1.229       .  A
O1453      V1986   2.041       .  S
O1453      C1462   1.297       .  A
O1454      C1461   1.294       .  A
O1455      V1458   2.050       .  S
O1455      C1460   1.298       .  A
O1456      C1459   1.300       .  A
V1457      O1977   1.822   1_545  S
V1458      O1981   2.042   1_545  S
O1463      V1999   1.815       .  S
O1464      V1471   1.817   1_545  S
O1464      C1474   1.231       .  A
O1465      V1471   1.818   1_544  S
O1466      V1999   1.809       .  S
O1466      C1476   1.229       .  A
O1467      V2000   2.043       .  S
O1467      C1476   1.296       .  A
O1468      V1472   2.044   1_544  S
O1469      V1472   2.047   1_545  S
O1469      C1474   1.297       .  A
O1470      V2000   2.048   1_554  S
V1471      O1991   1.818       .  S
V1471      O1994   1.811       .  S
V1471      V1472   1.950       .  T
V1472      O1995   2.044       .  S
V1472      O1998   2.050   1_556  S
O1477      V2013   2.044       .  S
O1477      C1487   1.297       .  A
O1478      C1488   1.298       .  A
O1479      V1485   2.051   1_545  S
O1479      C1489   1.298       .  A
O1480      C1490   1.301       .  A
O1481      V2014   1.820   1_655  S
O1481      C1490   1.229       .  A
O1482      C1489   1.232       .  A
O1483      V1486   1.822   1_645  S
O1483      C1488   1.229       .  A
O1484      C1487   1.229       .  A
V1485      O2005   2.047       .  S
V1486      O2009   1.824   1_455  S
O1492      V1499   2.048   1_655  S
O1492      C1502   1.298       .  A
O1493      C1503   1.295       .  A
O1494      V1499   2.052   1_654  S
O1495      V1500   1.818   1_654  S
O1496      C1503   1.231       .  A
O1497      V1500   1.814   1_655  S
O1497      C1502   1.227       .  A
V1499      V1500   1.952       .  T
C1505      C1506   1.404       .  A
C1505      C1510   1.398       .  A
C1505      H1512   1.081       .  S
C1506      C1507   1.418       .  A
C1507      C1508   1.402       .  A
C1507     Br1514   1.917       .  S
C1508      C1509   1.412       .  A
C1508      H1513   1.081       .  S
C1509      C1510   1.420       .  A
C1510     Br1511   1.911       .  S
C1515      C1516   1.406       .  A
C1515      C1520   1.400       .  A
C1515      H1522   1.076       .  S
C1516      C1517   1.417       .  A
C1517      C1518   1.399       .  A
C1517     Br1524   1.918       .  S
C1518      C1519   1.405       .  A
C1518      H1523   1.078       .  S
C1519      C1520   1.416       .  A
C1520     Br1521   1.917       .  S
C1525      C1526   1.402       .  A
C1525      C1530   1.398       .  A
C1525      H1532   1.081       .  S
C1526      C1527   1.424       .  A
C1527      C1528   1.400       .  A
C1527     Br1534   1.917       .  S
C1528      C1529   1.406       .  A
C1528      H1533   1.083       .  S
C1529      C1530   1.421       .  A
C1530     Br1531   1.909       .  S
C1535      C1536   1.411       .  A
C1535      C1540   1.406       .  A
C1535      H1542   1.076       .  S
C1536      C1537   1.417       .  A
C1537      C1538   1.405       .  A
C1537     Br1544   1.923       .  S
C1538      C1539   1.410       .  A
C1538      H1543   1.077       .  S
C1539      C1540   1.417       .  A
C1540     Br1541   1.924       .  S
C1545      C1546   1.405       .  A
C1545      C1550   1.395       .  A
C1545      H1552   1.076       .  S
C1546      C1547   1.415       .  A
C1547      C1548   1.397       .  A
C1547     Br1554   1.915       .  S
C1548      C1549   1.406       .  A
C1548      H1553   1.076       .  S
C1549      C1550   1.413       .  A
C1550     Br1551   1.912       .  S
C1555      C1556   1.409       .  A
C1555      C1560   1.393       .  A
C1555      H1562   1.074       .  S
C1556      C1557   1.412       .  A
C1557      C1558   1.398       .  A
C1557     Br1564   1.924       .  S
C1558      C1559   1.411       .  A
C1558      H1563   1.076       .  S
C1559      C1560   1.412       .  A
C1560     Br1561   1.925       .  S
C1565      C1566   1.410       .  A
C1565      C1570   1.402       .  A
C1565      H1572   1.081       .  S
C1566      C1567   1.419       .  A
C1567      C1568   1.400       .  A
C1567     Br1574   1.910       .  S
C1568      C1569   1.406       .  A
C1568      H1573   1.081       .  S
C1569      C1570   1.421       .  A
C1570     Br1571   1.917       .  S
C1575      C1576   1.408       .  A
C1575      C1580   1.401       .  A
C1575      H1582   1.077       .  S
C1576      C1577   1.414       .  A
C1577      C1578   1.399       .  A
C1577     Br1584   1.921       .  S
C1578      C1579   1.411       .  A
C1578      H1583   1.073       .  S
C1579      C1580   1.413       .  A
C1580     Br1581   1.914       .  S
O1585      V1593   2.059       .  S
O1585      C1595   1.300       .  A
O1586      V1593   2.058       .  S
O1586      C1596   1.299       .  A
O1587      V1593   2.042       .  S
O1587      C1597   1.297       .  A
O1588      V1593   2.045       .  S
O1588      C1598   1.296       .  A
O1589      V1594   1.814       .  S
O1589      C1598   1.229       .  A
O1590      V1594   1.820       .  S
O1590      C1597   1.229       .  A
O1591      V1594   1.823       .  S
O1591      C1596   1.230       .  A
O1592      V1594   1.825       .  S
O1592      C1595   1.231       .  A
V1593      V1594   1.945       .  T
C1595      C1669   1.628       .  S
C1596      C1677   1.627       .  S
C1597      C1671   1.628       .  S
C1598      C1673   1.612       .  S
O1599      V1607   1.812       .  S
O1599      C1609   1.230       .  A
O1600      V1607   1.816       .  S
O1600      C1610   1.228       .  A
O1601      V1607   1.817       .  S
O1601      C1611   1.229       .  A
O1602      V1607   1.819       .  S
O1602      C1612   1.231       .  A
O1603      V1608   2.046       .  S
O1603      C1612   1.298       .  A
O1604      V1608   2.048       .  S
O1604      C1611   1.298       .  A
O1605      V1608   2.049       .  S
O1605      C1610   1.299       .  A
O1606      V1608   2.044       .  S
O1606      C1609   1.297       .  A
V1607      V1608   1.952       .  T
C1609      C1669   1.617       .  S
C1610      C1681   1.628       .  S
C1611      C1671   1.611       .  S
C1612      C1675   1.631       .  S
O1613      V1621   1.815       .  S
O1613      C1623   1.228       .  A
O1614      V1621   1.817       .  S
O1614      C1624   1.228       .  A
O1615      V1621   1.820       .  S
O1615      C1625   1.230       .  A
O1616      V1621   1.816       .  S
O1616      C1626   1.230       .  A
O1617      V1622   2.048       .  S
O1617      C1626   1.297       .  A
O1618      V1622   2.054       .  S
O1618      C1625   1.298       .  A
O1619      V1622   2.039       .  S
O1619      C1624   1.296       .  A
O1620      V1622   2.037       .  S
O1620      C1623   1.298       .  A
V1621      V1622   1.947       .  T
C1623      C1669   1.620       .  S
C1624      C1679   1.611       .  S
C1625      C1675   1.619       .  S
C1626      C1673   1.619       .  S
O1627      V1635   1.809       .  S
O1627      C1637   1.229       .  A
O1628      V1635   1.810       .  S
O1628      C1638   1.228       .  A
O1629      V1635   1.814       .  S
O1629      C1639   1.230       .  A
O1630      V1635   1.815       .  S
O1630      C1640   1.230       .  A
O1631      V1636   2.043       .  S
O1631      C1640   1.297       .  A
O1632      V1636   2.041       .  S
O1632      C1639   1.298       .  A
O1633      V1636   2.038       .  S
O1633      C1638   1.297       .  A
O1634      V1636   2.030       .  S
O1634      C1637   1.295       .  A
V1635      V1636   1.950       .  T
C1637      C1673   1.616       .  S
C1638      C1683   1.623       .  S
C1639      C1679   1.626       .  S
C1640      C1677   1.625       .  S
O1641      V1649   2.041       .  S
O1641      C1651   1.296       .  A
O1642      V1649   2.044       .  S
O1642      C1652   1.297       .  A
O1643      V1649   2.058       .  S
O1643      C1653   1.299       .  A
O1644      V1649   2.047       .  S
O1644      C1654   1.298       .  A
O1645      V1650   1.815       .  S
O1645      C1654   1.231       .  A
O1646      V1650   1.816       .  S
O1646      C1653   1.228       .  A
O1647      V1650   1.812       .  S
O1647      C1652   1.229       .  A
O1648      V1650   1.818       .  S
O1648      C1651   1.229       .  A
V1649      V1650   1.950       .  T
C1651      C1681   1.616       .  S
C1652      C1677   1.613       .  S
C1653      C1683   1.624       .  S
C1654      C1671   1.628       .  S
O1655      V1663   2.055       .  S
O1655      C1665   1.298       .  A
O1656      V1663   2.052       .  S
O1656      C1666   1.299       .  A
O1657      V1663   2.050       .  S
O1657      C1667   1.298       .  A
O1658      V1663   2.045       .  S
O1658      C1668   1.297       .  A
O1659      V1664   1.810       .  S
O1659      C1668   1.228       .  A
O1660      V1664   1.814       .  S
O1660      C1667   1.228       .  A
O1661      V1664   1.819       .  S
O1661      C1666   1.230       .  A
O1662      V1664   1.820       .  S
O1662      C1665   1.230       .  A
V1663      V1664   1.950       .  T
C1665      C1679   1.621       .  S
C1666      C1681   1.618       .  S
C1667      C1683   1.618       .  S
C1668      C1675   1.613       .  S
C1669      C1843   1.537       .  S
C1670      C1740   1.616       .  S
C1670      C1754   1.624       .  S
C1670      C1766   1.624       .  S
C1670      C1840   1.534       .  S
C1671      C1830   1.540       .  S
C1672      C1709   1.624       .  S
C1672      C1738   1.616       .  S
C1672      C1752   1.618       .  S
C1672      C1833   1.534       .  S
C1673      C1823   1.526       .  S
C1674      C1697   1.619       .  S
C1674      C1751   1.614       .  S
C1674      C1767   1.615       .  S
C1674      C1820   1.524       .  S
C1675      C1810   1.538       .  S
C1676      C1726   1.620       .  S
C1676      C1737   1.626       .  S
C1676      C1768   1.622       .  S
C1676      C1813   1.538       .  S
C1677      C1803   1.539       .  S
C1678      C1696   1.623       .  S
C1678      C1712   1.614       .  S
C1678      C1753   1.625       .  S
C1678      C1800   1.538       .  S
C1679      C1790   1.539       .  S
C1680      C1695   1.625       .  S
C1680      C1723   1.622       .  S
C1680      C1765   1.625       .  S
C1680      C1793   1.545       .  S
C1681      C1780   1.538       .  S
C1682      C1711   1.627       .  S
C1682      C1724   1.621       .  S
C1682      C1739   1.628       .  S
C1682      C1783   1.545       .  S
C1683      C1770   1.533       .  S
C1684      C1698   1.617       .  S
C1684      C1710   1.621       .  S
C1684      C1725   1.618       .  S
C1684      C1773   1.531       .  S
O1685      V1693   1.813   1_565  S
O1685      C1959   1.228       .  A
O1686      C1696   1.230       .  A
O1687      V1693   1.810   1_565  S
O1687      C1697   1.227       .  A
O1688      C1962   1.229       .  A
O1689      C1962   1.297       .  A
O1690      V1694   2.040   1_565  S
O1690      C1697   1.297       .  A
O1691      C1696   1.297       .  A
O1692      V1694   2.035   1_565  S
O1692      C1959   1.297       .  A
V1693      V1694   1.950       .  T
C1695      O1949   1.230       .  A
C1695      O1956   1.298       .  A
C1698      O1952   1.228   1_554  A
C1698      O1953   1.297       .  A
O1699      C1709   1.230       .  A
O1700      V1707   1.820       .  S
O1700      C1974   1.228       .  A
O1701      C1975   1.228       .  A
O1702      V1707   1.811       .  S
O1702      C1712   1.228       .  A
O1703      V1708   2.043       .  S
O1703      C1712   1.295       .  A
O1704      C1711   1.296       .  A
O1705      V1708   2.052       .  S
O1705      C1974   1.298       .  A
O1706      C1709   1.298       .  A
V1707      V1708   1.956       .  T
C1710      O1964   1.230       .  A
C1710      O1969   1.298       .  A
C1711      O1965   1.229   1_554  A
O1713      C1723   1.230       .  A
O1714      C1724   1.229       .  A
O1715      V1721   1.814       .  S
O1715      C1725   1.230       .  A
O1716      C1726   1.230       .  A
O1717      C1726   1.297       .  A
O1718      C1725   1.296       .  A
O1719      V1722   2.058   1_655  S
O1719      C1724   1.301       .  A
O1720      C1723   1.299       .  A
O1727      C2001   1.229       .  A
O1728      V1735   1.815       .  S
O1728      C1738   1.230       .  A
O1729      V1735   1.817       .  S
O1729      C2003   1.228       .  A
O1730      C1740   1.230       .  A
O1731      C1740   1.297       .  A
O1732      V1736   2.043       .  S
O1732      C2003   1.298       .  A
O1733      V1736   2.045       .  S
O1733      C1738   1.296       .  A
O1734      C2001   1.299       .  A
V1735      V1736   1.950       .  T
C1737      O1991   1.228   1_554  A
C1737      O1998   1.299       .  A
C1739      O1993   1.229       .  A
C1739      O1996   1.298       .  A
O1741      C1751   1.297       .  A
O1742      C1752   1.298       .  A
O1743      V1749   2.054       .  S
O1743      C1753   1.298       .  A
O1744      C1754   1.300       .  A
O1745      C1754   1.230       .  A
O1746      C1753   1.231       .  A
O1747      V1750   1.821   1_655  S
O1747      C1752   1.228       .  A
O1748      C1751   1.229       .  A
O1755      C2029   1.297       .  A
O1756      V1763   2.045   1_655  S
O1756      C1766   1.297       .  A
O1757      C1767   1.296       .  A
O1758      V1763   2.055   1_655  S
O1758      C2032   1.299       .  A
O1759      V1764   1.818   1_655  S
O1759      C2032   1.228       .  A
O1760      C1767   1.231       .  A
O1761      V1764   1.814   1_655  S
O1761      C1766   1.228       .  A
O1762      C2029   1.227       .  A
V1763      V1764   1.951       .  T
C1765      O2019   1.297       .  A
C1765      O2026   1.229   1_554  A
C1768      O2022   1.298       .  A
C1768      O2023   1.229       .  A
C1769      C1770   1.410       .  A
C1769      C1774   1.398       .  A
C1769      H1776   1.073       .  S
C1770      C1771   1.412       .  A
C1771      C1772   1.397       .  A
C1771     Br1778   1.913       .  S
C1772      C1773   1.409       .  A
C1772      H1777   1.076       .  S
C1773      C1774   1.411       .  A
C1774     Br1775   1.914       .  S
C1779      C1780   1.404       .  A
C1779      C1784   1.402       .  A
C1779      H1786   1.080       .  S
C1780      C1781   1.420       .  A
C1781      C1782   1.398       .  A
C1781     Br1788   1.915       .  S
C1782      C1783   1.407       .  A
C1782      H1787   1.081       .  S
C1783      C1784   1.423       .  A
C1784     Br1785   1.910       .  S
C1789      C1790   1.404       .  A
C1789      C1794   1.400       .  A
C1789      H1796   1.076       .  S
C1790      C1791   1.421       .  A
C1791      C1792   1.401       .  A
C1791     Br1798   1.918       .  S
C1792      C1793   1.409       .  A
C1792      H1797   1.080       .  S
C1793      C1794   1.418       .  A
C1794     Br1795   1.906       .  S
C1799      C1800   1.411       .  A
C1799      C1804   1.404       .  A
C1799      H1806   1.075       .  S
C1800      C1801   1.415       .  A
C1801      C1802   1.403       .  A
C1801     Br1808   1.924       .  S
C1802      C1803   1.412       .  A
C1802      H1807   1.077       .  S
C1803      C1804   1.415       .  A
C1804     Br1805   1.923       .  S
C1809      C1810   1.404       .  A
C1809      C1814   1.399       .  A
C1809      H1816   1.077       .  S
C1810      C1811   1.420       .  A
C1811      C1812   1.403       .  A
C1811     Br1818   1.916       .  S
C1812      C1813   1.407       .  A
C1812      H1817   1.078       .  S
C1813      C1814   1.415       .  A
C1814     Br1815   1.907       .  S
C1819      C1820   1.412       .  A
C1819      C1824   1.400       .  A
C1819      H1826   1.075       .  S
C1820      C1821   1.411       .  A
C1821      C1822   1.393       .  A
C1821     Br1828   1.926       .  S
C1822      C1823   1.410       .  A
C1822      H1827   1.074       .  S
C1823      C1824   1.412       .  A
C1824     Br1825   1.925       .  S
C1829      C1830   1.410       .  A
C1829      C1834   1.401       .  A
C1829      H1836   1.082       .  S
C1830      C1831   1.420       .  A
C1831      C1832   1.397       .  A
C1831     Br1838   1.911       .  S
C1832      C1833   1.404       .  A
C1832      H1837   1.081       .  S
C1833      C1834   1.420       .  A
C1834     Br1835   1.917       .  S
C1839      C1840   1.411       .  A
C1839      C1844   1.403       .  A
C1839      H1846   1.077       .  S
C1840      C1841   1.412       .  A
C1841      C1842   1.398       .  A
C1841     Br1848   1.917       .  S
C1842      C1843   1.410       .  A
C1842      H1847   1.074       .  S
C1843      C1844   1.414       .  A
C1844     Br1845   1.916       .  S
O1849      V1857   2.062       .  S
O1849      C1859   1.300       .  A
O1850      V1857   2.053       .  S
O1850      C1860   1.298       .  A
O1851      V1857   2.040       .  S
O1851      C1861   1.297       .  A
O1852      V1857   2.042       .  S
O1852      C1862   1.295       .  A
O1853      V1858   1.812       .  S
O1853      C1862   1.230       .  A
O1854      V1858   1.818       .  S
O1854      C1861   1.229       .  A
O1855      V1858   1.817       .  S
O1855      C1860   1.230       .  A
O1856      V1858   1.825       .  S
O1856      C1859   1.231       .  A
V1857      V1858   1.948       .  T
C1859      C1933   1.633       .  S
C1860      C1941   1.622       .  S
C1861      C1935   1.628       .  S
C1862      C1937   1.613       .  S
O1863      V1871   1.810       .  S
O1863      C1873   1.229       .  A
O1864      V1871   1.814       .  S
O1864      C1874   1.229       .  A
O1865      V1871   1.822       .  S
O1865      C1875   1.230       .  A
O1866      V1871   1.819       .  S
O1866      C1876   1.232       .  A
O1867      V1872   2.042       .  S
O1867      C1876   1.298       .  A
O1868      V1872   2.056       .  S
O1868      C1875   1.299       .  A
O1869      V1872   2.044       .  S
O1869      C1874   1.296       .  A
O1870      V1872   2.043       .  S
O1870      C1873   1.298       .  A
V1871      V1872   1.953       .  T
C1873      C1933   1.617       .  S
C1874      C1945   1.626       .  S
C1875      C1935   1.621       .  S
C1876      C1939   1.627       .  S
O1877      V1885   1.817       .  S
O1877      C1887   1.228       .  A
O1878      V1885   1.810       .  S
O1878      C1888   1.229       .  A
O1879      V1885   1.817       .  S
O1879      C1889   1.230       .  A
O1880      V1885   1.811       .  S
O1880      C1890   1.227       .  A
O1881      V1886   2.047       .  S
O1881      C1890   1.298       .  A
O1882      V1886   2.049       .  S
O1882      C1889   1.297       .  A
O1883      V1886   2.038       .  S
O1883      C1888   1.295       .  A
O1884      V1886   2.042       .  S
O1884      C1887   1.298       .  A
V1885      V1886   1.951       .  T
C1887      C1933   1.621       .  S
C1888      C1943   1.607       .  S
C1889      C1939   1.616       .  S
C1890      C1937   1.613       .  S
O1891      V1899   1.816       .  S
O1891      C1901   1.229       .  A
O1892      V1899   1.814       .  S
O1892      C1902   1.230       .  A
O1893      V1899   1.807       .  S
O1893      C1903   1.229       .  A
O1894      V1899   1.809       .  S
O1894      C1904   1.227       .  A
O1895      V1900   2.037       .  S
O1895      C1904   1.297       .  A
O1896      V1900   2.030       .  S
O1896      C1903   1.295       .  A
O1897      V1900   2.040       .  S
O1897      C1902   1.298       .  A
O1898      V1900   2.042       .  S
O1898      C1901   1.297       .  A
V1899      V1900   1.951       .  T
C1901      C1937   1.623       .  S
C1902      C1947   1.623       .  S
C1903      C1943   1.618       .  S
C1904      C1941   1.620       .  S
O1905      V1913   2.043       .  S
O1905      C1915   1.297       .  A
O1906      V1913   2.049       .  S
O1906      C1916   1.297       .  A
O1907      V1913   2.053       .  S
O1907      C1917   1.298       .  A
O1908      V1913   2.054       .  S
O1908      C1918   1.300       .  A
O1909      V1914   1.820       .  S
O1909      C1918   1.230       .  A
O1910      V1914   1.817       .  S
O1910      C1917   1.230       .  A
O1911      V1914   1.813       .  S
O1911      C1916   1.229       .  A
O1912      V1914   1.810       .  S
O1912      C1915   1.229       .  A
V1913      V1914   1.951       .  T
C1915      C1945   1.612       .  S
C1916      C1941   1.617       .  S
C1917      C1947   1.622       .  S
C1918      C1935   1.634       .  S
O1919      V1927   2.060       .  S
O1919      C1929   1.299       .  A
O1920      V1927   2.056       .  S
O1920      C1930   1.300       .  A
O1921      V1927   2.049       .  S
O1921      C1931   1.299       .  A
O1922      V1927   2.043       .  S
O1922      C1932   1.298       .  A
O1923      V1928   1.818       .  S
O1923      C1932   1.229       .  A
O1924      V1928   1.822       .  S
O1924      C1931   1.228       .  A
O1925      V1928   1.823       .  S
O1925      C1930   1.230       .  A
O1926      V1928   1.827       .  S
O1926      C1929   1.232       .  A
V1927      V1928   1.942       .  T
C1929      C1943   1.628       .  S
C1930      C1945   1.623       .  S
C1931      C1947   1.619       .  S
C1932      C1939   1.614       .  S
C1933      C2107   1.539       .  S
C1934      C2004   1.613       .  S
C1934      C2018   1.627       .  S
C1934      C2030   1.625       .  S
C1934      C2104   1.538       .  S
C1935      C2094   1.551       .  S
C1936      C1973   1.629       .  S
C1936      C2002   1.624       .  S
C1936      C2016   1.618       .  S
C1936      C2097   1.545       .  S
C1937      C2087   1.524       .  S
C1938      C1961   1.624       .  S
C1938      C2015   1.615       .  S
C1938      C2031   1.613       .  S
C1938      C2084   1.524       .  S
C1939      C2074   1.538       .  S
C1940      C1990   1.628       .  S
C1940      C2001   1.628       .  S
C1940      C2032   1.618       .  S
C1940      C2077   1.545       .  S
C1941      C2067   1.530       .  S
C1942      C1960   1.614       .  S
C1942      C1976   1.614       .  S
C1942      C2017   1.622       .  S
C1942      C2064   1.529       .  S
C1943      C2054   1.534       .  S
C1944      C1959   1.619       .  S
C1944      C1987   1.628       .  S
C1944      C2029   1.614       .  S
C1944      C2057   1.532       .  S
C1945      C2044   1.533       .  S
C1946      C1975   1.615       .  S
C1946      C1988   1.623       .  S
C1946      C2003   1.622       .  S
C1946      C2047   1.532       .  S
C1947      C2034   1.537       .  S
C1948      C1962   1.622       .  S
C1948      C1974   1.615       .  S
C1948      C1989   1.631       .  S
C1948      C2037   1.541       .  S
O1949      V1957   1.816   1_554  S
O1950      C1960   1.229       .  A
O1951      V1957   1.810       .  S
O1951      C1961   1.227       .  A
O1954      V1958   2.044       .  S
O1954      C1961   1.298       .  A
O1955      C1960   1.295       .  A
O1956      V1958   2.043   1_554  S
V1957      V1958   1.950       .  T
O1963      C1973   1.230       .  A
O1964      V1971   1.821   1_554  S
O1966      V1971   1.810       .  S
O1966      C1976   1.229       .  A
O1967      V1972   2.039       .  S
O1967      C1976   1.295       .  A
O1968      C1975   1.297       .  A
O1969      V1972   2.053   1_554  S
O1970      C1973   1.300       .  A
V1971      V1972   1.952       .  T
O1977      C1987   1.230       .  A
O1978      C1988   1.231       .  A
O1979      V1985   1.821       .  S
O1979      C1989   1.229       .  A
O1980      C1990   1.231       .  A
O1981      C1990   1.297       .  A
O1982      C1989   1.296       .  A
O1983      V1986   2.052       .  S
O1983      C1988   1.298       .  A
O1984      C1987   1.298       .  A
O1992      V1999   1.819       .  S
O1992      C2002   1.231       .  A
O1993      V1999   1.813   1_554  S
O1994      C2004   1.229       .  A
O1995      C2004   1.297       .  A
O1996      V2000   2.047   1_554  S
O1997      V2000   2.052       .  S
O1997      C2002   1.297       .  A
V1999      V2000   1.955       .  T
O2005      C2015   1.298       .  A
O2006      C2016   1.298       .  A
O2007      V2013   2.052       .  S
O2007      C2017   1.297       .  A
O2008      C2018   1.300       .  A
O2009      C2018   1.230       .  A
O2010      C2017   1.231       .  A
O2011      V2014   1.821   1_655  S
O2011      C2016   1.227       .  A
O2012      C2015   1.229       .  A
O2020      V2027   2.039       .  S
O2020      C2030   1.297       .  A
O2021      C2031   1.296       .  A
O2022      V2027   2.054   1_554  S
O2023      V2028   1.818   1_554  S
O2024      C2031   1.230       .  A
O2025      V2028   1.814       .  S
O2025      C2030   1.230       .  A
V2027      V2028   1.950       .  T
C2033      C2034   1.405       .  A
C2033      C2038   1.398       .  A
C2033      H2040   1.081       .  S
C2034      C2035   1.420       .  A
C2035      C2036   1.400       .  A
C2035     Br2042   1.916       .  S
C2036      C2037   1.411       .  A
C2036      H2041   1.081       .  S
C2037      C2038   1.416       .  A
C2038     Br2039   1.908       .  S
C2043      C2044   1.407       .  A
C2043      C2048   1.400       .  A
C2043      H2050   1.078       .  S
C2044      C2045   1.415       .  A
C2045      C2046   1.399       .  A
C2045     Br2052   1.914       .  S
C2046      C2047   1.407       .  A
C2046      H2051   1.076       .  S
C2047      C2048   1.414       .  A
C2048     Br2049   1.913       .  S
C2053      C2054   1.409       .  A
C2053      C2058   1.397       .  A
C2053      H2060   1.073       .  S
C2054      C2055   1.412       .  A
C2055      C2056   1.398       .  A
C2055     Br2062   1.907       .  S
C2056      C2057   1.408       .  A
C2056      H2061   1.073       .  S
C2057      C2058   1.409       .  A
C2058     Br2059   1.905       .  S
C2063      C2064   1.412       .  A
C2063      C2068   1.399       .  A
C2063      H2070   1.076       .  S
C2064      C2065   1.411       .  A
C2065      C2066   1.397       .  A
C2065     Br2072   1.924       .  S
C2066      C2067   1.411       .  A
C2066      H2071   1.074       .  S
C2067      C2068   1.412       .  A
C2068     Br2069   1.924       .  S
C2073      C2074   1.402       .  A
C2073      C2078   1.400       .  A
C2073      H2080   1.079       .  S
C2074      C2075   1.420       .  A
C2075      C2076   1.400       .  A
C2075     Br2082   1.911       .  S
C2076      C2077   1.408       .  A
C2076      H2081   1.081       .  S
C2077      C2078   1.420       .  A
C2078     Br2079   1.903       .  S
C2083      C2084   1.408       .  A
C2083      C2088   1.396       .  A
C2083      H2090   1.077       .  S
C2084      C2085   1.414       .  A
C2085      C2086   1.398       .  A
C2085     Br2092   1.925       .  S
C2086      C2087   1.408       .  A
C2086      H2091   1.076       .  S
C2087      C2088   1.414       .  A
C2088     Br2089   1.925       .  S
C2093      C2094   1.408       .  A
C2093      C2098   1.405       .  A
C2093      H2100   1.082       .  S
C2094      C2095   1.425       .  A
C2095      C2096   1.402       .  A
C2095     Br2102   1.908       .  S
C2096      C2097   1.402       .  A
C2096      H2101   1.082       .  S
C2097      C2098   1.425       .  A
C2098     Br2099   1.917       .  S
C2103      C2104   1.409       .  A
C2103      C2108   1.399       .  A
C2103      H2110   1.075       .  S
C2104      C2105   1.414       .  A
C2105      C2106   1.404       .  A
C2105     Br2112   1.920       .  S
C2106      C2107   1.412       .  A
C2106      H2111   1.075       .  S
C2107      C2108   1.412       .  A
C2108     Br2109   1.911       .  S
