geometry optimzed in LAMMPS
_audit_creation_date              2020-12-01 
_audit_creation_method            'lammps2cif' 
_symmetry_space_group_name_H-M    'P1' 
_symmetry_Int_Tables_number       1 
_symmetry_cell_setting            triclinic 
loop_ 
_symmetry_equiv_pos_as_xyz 
  x,y,z 
_cell_length_a                    37.75897985 
_cell_length_b                    38.364605245745686 
_cell_length_c                    39.34262057937838 
_cell_angle_alpha                 90.75504155369843 
_cell_angle_beta                  90.72654979230776 
_cell_angle_gamma                 88.86698964874803 
loop_ 
_atom_site_label 
_atom_site_type_symbol 
_atom_site_fract_x 
_atom_site_fract_y 
_atom_site_fract_z 
_atom_site_charge 
C1          C  0.39855883  0.35807509  0.35121692     0.86000
C2          C  0.41902539  0.38071231  0.37695038    -0.54200
C3          C  0.39847122  0.39961347  0.39899595     0.09000
C4          C  0.35800617  0.39403888  0.39311434     0.19900
C5          C  0.37441418  0.33542014  0.37304734    -0.54900
C6          C  0.35336912  0.35377237  0.39554606     0.09100
C7          C  0.37317210  0.38365484  0.33339148    -0.54400
C8          C  0.35154740  0.40263285  0.35463716     0.09600
H9          H  0.44772943  0.38226867  0.37716382     0.14200
H10         H  0.34100731  0.40963561  0.41067957    -0.00100
H11         H  0.37460309  0.30711980  0.37133386     0.14500
H12         H  0.37294086  0.38722560  0.30604705     0.14300
C13         C  0.10286949  0.10910828  0.10485111     0.86000
C14         C  0.12442207  0.13555949  0.08543366    -0.54200
C15         C  0.14682582  0.15571264  0.10470612     0.09000
C16         C  0.14451159  0.14725417  0.14363913     0.19900
C17         C  0.13052503  0.08786189  0.12511933    -0.54900
C18         C  0.15231149  0.10714946  0.14576015     0.09100
C19         C  0.08309446  0.13070721  0.13159920    -0.54400
C20         C  0.10412616  0.15061858  0.15230821     0.09600
H21         H  0.12263168  0.13747278  0.05796023     0.14200
H22         H  0.16189216  0.16332228  0.16024723    -0.00100
H23         H  0.13167685  0.05952653  0.12442506     0.14500
H24         H  0.05441572  0.13065596  0.13371233     0.14300
N25         N  0.04253596  0.52245522  0.43462902    -0.06600
N26         N  0.06821117  0.52370582  0.41260909    -0.58700
N27         N  0.47842441  0.07599417  0.45784490    -0.06200
N28         N  0.46218090  0.10228348  0.44294820    -0.60800
N29         N  0.00961915  0.08504014  0.46996354    -0.05800
N30         N  0.01543394  0.11791581  0.46204985    -0.58700
N31         N  0.01210841  0.51524743  0.41954035    -0.05500
N32         N  0.01687919  0.51253781  0.38616718    -0.61200
C33         C  0.05229106  0.51725109  0.38272123     0.95600
C34         C  0.98502051  0.12833378  0.44599269     0.95400
N35         N  0.40973760  0.01474722  0.50859906    -0.06700
N36         N  0.38750814  0.03158314  0.02925254    -0.59300
N37         N  0.44381850  0.46857549  0.44158309    -0.04900
N38         N  0.43124514  0.45447258  0.41308435    -0.60500
N39         N  0.43619013  0.44911047  0.46775090    -0.06800
N40         N  0.41797250  0.42155355  0.45736545    -0.59500
N41         N  0.41614899  0.03385642  0.48189585    -0.04500
N42         N  0.39851302  0.06393095  0.48390699    -0.60600
Mn43       Mn  0.46229610  0.02274264  0.44925127     1.18400
C44         C  0.38062356  0.06210191  0.51330562     0.97700
C45         C  0.41504696  0.42521312  0.42315392     0.98400
N46         N  0.05535153  0.06387546  0.03831133    -0.06800
N47         N  0.07447157  0.09081990  0.04822834    -0.63100
N48         N  0.07765630  0.47970986  0.02449051    -0.05600
N49         N  0.09710081  0.45070862  0.02339437    -0.63800
N50         N  0.08411747  0.49909983  0.49817885    -0.06300
N51         N  0.10811017  0.48362138  0.47852774    -0.63400
N52         N  0.04858197  0.04420580  0.06451456    -0.05200
N53         N  0.06271159  0.05764276  0.09266211    -0.64100
Mn54       Mn  0.04821170  0.04339010  0.48548415     1.10700
C55         C  0.07870582  0.08691176  0.08227607     0.98900
C56         C  0.11615504  0.45368631  0.99481527     0.99000
N57         N  0.48355680  0.42746932  0.03580480    -0.06300
N58         N  0.47848514  0.39435813  0.04352891    -0.61700
N59         N  0.48229666  0.99726122  0.08626129    -0.05600
N60         N  0.47913688  0.00001573  0.11972000    -0.58400
N61         N  0.45140013  0.98987061  0.07225336    -0.06900
N62         N  0.42680771  0.98825971  0.09541747    -0.61300
N63         N  0.51505348  0.43677425  0.04714934    -0.05900
N64         N  0.03216551  0.41054125  0.06118717    -0.58400
Mn65       Mn  0.44449370  0.46937486  0.02087923     1.20200
Mn66       Mn  0.03112385  0.49001484  0.05632488     1.10100
Cl67       Cl  0.49648733  0.00622834  0.50283949    -0.86400
C68         C  0.50963246  0.38415579  0.05851175     0.95900
C69         C  0.44417254  0.99490159  0.12463570     0.95700
N70         N  0.30201345  0.32077939  0.46418875    -0.06600
N71         N  0.32737341  0.34157584  0.45372503    -0.58700
N72         N  0.21257993  0.32675902  0.46192661    -0.06200
N73         N  0.18456260  0.34541654  0.45153688    -0.60800
N74         N  0.22785063  0.34245900  0.98791288    -0.05800
N75         N  0.21108019  0.37178187  0.99587647    -0.58700
N76         N  0.28804216  0.30394715  0.43807269    -0.05500
N77         N  0.30427984  0.31230123  0.40964186    -0.61200
C78         C  0.32892581  0.33577592  0.41958557     0.95600
C79         C  0.18427287  0.37346401  0.47310201     0.95400
N80         N  0.18337615  0.22037243  0.46647630    -0.06700
N81         N  0.15888288  0.19983879  0.45342987    -0.59300
N82         N  0.26009299  0.22539689  0.42830506    -0.04900
N83         N  0.27222793  0.21481471  0.39840308    -0.60500
N84         N  0.25736570  0.19853936  0.44858453    -0.06800
N85         N  0.26814776  0.16968616  0.43348328    -0.59500
N86         N  0.18635906  0.24847106  0.44769832    -0.04500
N87         N  0.16350661  0.24735770  0.42217084    -0.60600
Mn88       Mn  0.23657308  0.27639075  0.44341094     1.18400
C89         C  0.14649890  0.21723408  0.42618686     0.97700
C90         C  0.27770348  0.18012544  0.40265532     0.98400
N91         N  0.24514857  0.32114206  0.06163351    -0.06800
N92         N  0.23517377  0.35028121  0.07676271    -0.63100
N93         N  0.31501605  0.27046306  0.06222698    -0.05600
N94         N  0.33898584  0.27036600  0.08678933    -0.63800
N95         N  0.31861633  0.29838102  0.04320512    -0.06300
N96         N  0.34464208  0.31766823  0.05527574    -0.63400
N97         N  0.24167833  0.29431350  0.08197681    -0.05200
N98         N  0.22998122  0.30542531  0.11193599    -0.64100
Mn99       Mn  0.27405241  0.32056071  0.01405120     1.10700
C100        C  0.22547503  0.34028654  0.10767273     0.98900
C101        C  0.35729866  0.29955241  0.08199916     0.99000
N102        N  0.27394097  0.17710170  0.02205789    -0.06300
N103        N  0.29068862  0.14782161  0.51382884    -0.61700
N104        N  0.21302864  0.21370216  0.07214618    -0.05600
N105        N  0.19644804  0.20161468  0.09935900    -0.58400
N106        N  0.19944756  0.19969669  0.04430913    -0.06900
N107        N  0.17365691  0.17858440  0.05187146    -0.61300
N108        N  0.28892089  0.19210715  0.04858865    -0.05900
N109        N  0.31656276  0.17287340  0.05906490    -0.58400
Mn110      Mn  0.22819170  0.19931560  0.49565057     1.20200
Mn111      Mn  0.26473487  0.24247527  0.06721027     1.10100
Cl112      Cl  0.25081952  0.25976502  0.00519109    -0.86400
C113        C  0.31690967  0.14522865  0.03692443     0.95900
C114        C  0.17136246  0.17985924  0.08617095     0.95700
N115        N  0.44909621  0.27492216  0.19028040    -0.06600
N116        N  0.42672696  0.27420878  0.16453822    -0.58700
N117        N  0.52255138  0.31594125  0.19125079    -0.06200
N118        N  0.02525062  0.34125241  0.16888232    -0.60800
N119        N  0.52560102  0.28552261  0.17531024    -0.05800
N120        N  0.03092540  0.28987514  0.14259600    -0.58700
N121        N  0.44701584  0.30522957  0.20644099    -0.05500
N122        N  0.42368554  0.32602590  0.19096979    -0.61200
C123        C  0.41091718  0.30576088  0.16543258     0.95600
C124        C  0.03101259  0.32452590  0.13889009     0.95400
N125        N  0.04635530  0.31516479  0.29788074    -0.06700
N126        N  0.07697190  0.32392704  0.31150244    -0.59300
N127        N  0.45822096  0.32469223  0.28664593    -0.04900
N128        N  0.43083277  0.34545384  0.29463327    -0.60500
N129        N  0.46743260  0.30596845  0.31320138    -0.06800
N130        N  0.44700547  0.31348810  0.33941077    -0.59500
N131        N  0.03904035  0.33336649  0.27051999    -0.04500
N132        N  0.06497475  0.35513998  0.26486275    -0.60600
Mn133      Mn  0.49155862  0.32100514  0.23913507     1.18400
C134        C  0.08810172  0.34885917  0.29083083     0.97700
C135        C  0.42386910  0.33788535  0.32770075     0.98400
N136        N  0.04384565  0.20766615  0.19246641    -0.06800
N137        N  0.06403933  0.19996080  0.16619031    -0.63100
N138        N  0.47168310  0.17954342  0.23432427    -0.05600
N139        N  0.44548912  0.15817418  0.24029213    -0.63800
N140        N  0.46440116  0.19779210  0.20699869    -0.06300
N141        N  0.43349749  0.18938798  0.19368901    -0.63400
N142        N  0.05253240  0.18819736  0.21864777    -0.05200
N143        N  0.07895060  0.16643261  0.21003517    -0.64100
Mn144      Mn  0.49612505  0.24100221  0.19148038     1.10700
C145        C  0.08662665  0.17478136  0.17731362     0.98900
C146        C  0.42222683  0.16458796  0.21449292     0.99000
N147        N  0.98475620  0.22775202  0.32933300    -0.06300
N148        N  0.47647023  0.22340642  0.36139292    -0.61700
N149        N  0.06337221  0.20762576  0.29889072    -0.05600
N150        N  0.08652439  0.18694927  0.31478953    -0.58400
N151        N  0.06159489  0.23823320  0.31449142    -0.06900
N152        N  0.08410097  0.23933108  0.34007336    -0.61300
N153        N  0.98712332  0.19744134  0.31316988    -0.05900
N154        N  0.48086693  0.17203454  0.33463919    -0.58400
Mn155      Mn  0.01473589  0.27218631  0.31361302     1.20200
Mn156      Mn  0.01889530  0.19190434  0.26593278     1.10100
Cl157      Cl  0.50530731  0.25652084  0.25253394    -0.86400
C158        C  0.47367131  0.18880828  0.36433114     0.95900
C159        C  0.09962341  0.20766781  0.33985645     0.95700
N160        N  0.28591965  0.46435377  0.32441655    -0.06600
N161        N  0.29411457  0.43837459  0.34547899    -0.58700
N162        N  0.29426107  0.05030769  0.31695470    -0.06200
N163        N  0.30537527  0.08154090  0.32533140    -0.60800
N164        N  0.26468262  0.04321734  0.33254045    -0.05800
N165        N  0.25495661  0.06999278  0.35202871    -0.58700
N166        N  0.31415884  0.47294639  0.30740116    -0.05500
N167        N  0.34168533  0.45315846  0.31618350    -0.61200
C168        C  0.32919629  0.43171631  0.34005800     0.95600
C169        C  0.28087205  0.09332518  0.34716531     0.95400
N170        N  0.29899533  0.06871540  0.21427001    -0.06700
N171        N  0.31062430  0.09606060  0.19787191    -0.59300
N172        N  0.33453237  0.49074703  0.23110163    -0.04900
N173        N  0.36833997  0.48258892  0.22690025    -0.60500
N174        N  0.31803678  0.49299542  0.20140930    -0.06800
N175        N  0.34057089  0.48607374  0.17675242    -0.59500
N176        N  0.31504562  0.06621077  0.24407005    -0.04500
N177        N  0.33705689  0.09191482  0.24885866    -0.60600
Mn178      Mn  0.31482744  0.01953319  0.27517420     1.18400
C179        C  0.33370867  0.11053929  0.22033560     0.97700
C180        C  0.37156023  0.47910965  0.19300592     0.98400
N181        N  0.18431003  0.02575225  0.31110861    -0.06800
N182        N  0.16063031  0.02985815  0.33540252    -0.63100
N183        N  0.18952406  0.45387207  0.26747590    -0.05600
N184        N  0.16900036  0.42724971  0.26153216    -0.63800
N185        N  0.20561424  0.45098339  0.29726368    -0.06300
N186        N  0.19542722  0.42237080  0.31251757    -0.63400
N187        N  0.16840402  0.02865673  0.28114515    -0.05200
N188        N  0.13409299  0.03465960  0.28485637    -0.64100
Mn189      Mn  0.23513862  0.49583987  0.31764922     1.10700
C190        C  0.12964279  0.03591641  0.31869149     0.98900
C191        C  0.17324746  0.40767932  0.28931554     0.99000
N192        N  0.23859367  0.47744928  0.17911192    -0.06300
N193        N  0.24818251  0.45093114  0.15919022    -0.61700
N194        N  0.18985799  0.04830113  0.20517228    -0.05600
N195        N  0.16236488  0.06723276  0.19447435    -0.58400
N196        N  0.21859484  0.05678350  0.18885845    -0.06900
N197        N  0.21087577  0.08188410  0.16679889    -0.61300
N198        N  0.20903489  0.47030136  0.19458628    -0.05900
N199        N  0.19775526  0.43921254  0.18569225    -0.58400
Mn200      Mn  0.26850871  0.02422903  0.19476418     1.20200
Mn201      Mn  0.18889434  0.50091340  0.23684830     1.10100
Cl202      Cl  0.25189236  0.01019115  0.25610872    -0.86400
C203        C  0.22217244  0.42759072  0.16361193     0.95900
C204        C  0.17573545  0.08887230  0.17113163     0.95700
C205        C  0.36033344  0.13465092  0.21193211    -0.13700
C206        C  0.38797824  0.14956896  0.21137833    -0.15300
C207        C  0.14831503  0.38147097  0.29617056    -0.13700
C208        C  0.12157300  0.36510165  0.29511355    -0.15300
C209        C  0.22115263  0.36581165  0.13398942    -0.13700
C210        C  0.22157682  0.39325679  0.14904751    -0.15300
C211        C  0.28151986  0.12766050  0.36125868    -0.13700
C212        C  0.28215955  0.15502702  0.37622026    -0.15300
C213        C  0.12973414  0.20056536  0.39780046    -0.13700
C214        C  0.11758892  0.19616579  0.36977538    -0.15300
C215        C  0.37714573  0.31465822  0.10928376    -0.13700
C216        C  0.39159759  0.31767602  0.13644354    -0.15300
C217        C  0.34246305  0.11657862  0.03569660    -0.13700
C218        C  0.36053546  0.09126139  0.52770250    -0.15300
C219        C  0.13868275  0.42591292  0.98150196    -0.13700
C220        C  0.15800197  0.40134399  0.47423347    -0.15300
C221        C  0.07109491  0.52337139  0.35197570    -0.13700
C222        C  0.09578407  0.03057097  0.33409671    -0.15300
C223        C  0.40474120  0.48240259  0.17625631    -0.13700
C224        C  0.42765065  0.98879905  0.15640228    -0.15300
C225        C  0.02289861  0.34003630  0.10662367    -0.13700
C226        C  0.51423684  0.35581389  0.08148587    -0.15300
C227        C  0.47699063  0.17241745  0.39675283    -0.13700
C228        C  0.98229692  0.15622625  0.42237760    -0.15300
C229        C  0.39856448  0.35799435  0.85119386     0.86000
C230        C  0.41898626  0.38065068  0.87695232    -0.54200
C231        C  0.39839616  0.39953999  0.89898184     0.09000
C232        C  0.35794085  0.39392575  0.89305828     0.19900
C233        C  0.37441299  0.33531740  0.87300040    -0.54900
C234        C  0.35332677  0.35365028  0.89548079     0.09100
C235        C  0.37317441  0.38356218  0.83334943    -0.54400
C236        C  0.35151754  0.40252649  0.85457757     0.09600
H237        H  0.44768767  0.38223668  0.87718630     0.14200
H238        H  0.34091059  0.40950739  0.91060770    -0.00100
H239        H  0.37463109  0.30701658  0.87128755     0.14500
H240        H  0.37297285  0.38714456  0.80600676     0.14300
C241        C  0.10290766  0.10901828  0.60481144     0.86000
C242        C  0.12449289  0.13545930  0.58539605    -0.54200
C243        C  0.14688814  0.15562443  0.60467606     0.09000
C244        C  0.14453587  0.14717073  0.64361528     0.19900
C245        C  0.13054076  0.08777376  0.62511093    -0.54900
C246        C  0.15231958  0.10706152  0.64576065     0.09100
C247        C  0.08312182  0.13063844  0.63153924    -0.54400
C248        C  0.10414275  0.15054762  0.65226168     0.09600
H249        H  0.12272204  0.13736258  0.55792102     0.14200
H250        H  0.16190698  0.16323748  0.66023378    -0.00100
H251        H  0.13168207  0.05943759  0.62442981     0.14500
H252        H  0.05444182  0.13059072  0.63363807     0.14300
N253        N  0.04252434  0.52256278  0.93460298    -0.06600
N254        N  0.06820472  0.52382050  0.91258991    -0.58700
N255        N  0.47839789  0.07603851  0.95794551    -0.06200
N256        N  0.46218687  0.10232771  0.94301613    -0.60800
N257        N  0.00957947  0.08511239  0.97004607    -0.05800
N258        N  0.01539839  0.11798297  0.96211635    -0.58700
N259        N  0.01210697  0.51531648  0.91951164    -0.05500
N260        N  0.01689202  0.51258261  0.88614161    -0.61200
C261        C  0.05230051  0.51732556  0.88270391     0.95600
C262        C  0.98498567  0.12840379  0.94605989     0.95400
N263        N  0.40964733  0.01472657  0.00860809    -0.06700
N264        N  0.38766296  0.03165359  0.52926955    -0.59300
N265        N  0.44369237  0.46856648  0.94156163    -0.04900
N266        N  0.43108555  0.45446616  0.91307209    -0.60500
N267        N  0.43611827  0.44907881  0.96773107    -0.06800
N268        N  0.41791147  0.42150885  0.95735241    -0.59500
N269        N  0.41606377  0.03385779  0.98192125    -0.04500
N270        N  0.39837018  0.06390119  0.98391917    -0.60600
Mn271      Mn  0.46225454  0.02279442  0.94929767     1.18400
C272        C  0.38043736  0.06202605  0.01329024     0.97700
C273        C  0.41492870  0.42518157  0.92314367     0.98400
N274        N  0.05532235  0.06378299  0.53829278    -0.06800
N275        N  0.07447659  0.09070939  0.54819697    -0.63100
N276        N  0.07766602  0.47963566  0.52452682    -0.05600
N277        N  0.09710911  0.45063428  0.52343477    -0.63800
N278        N  0.08410213  0.49917390  0.99813911    -0.06300
N279        N  0.10808602  0.48369062  0.97847946    -0.63400
N280        N  0.04854763  0.04412023  0.56450738    -0.05200
N281        N  0.06271190  0.05755410  0.59264242    -0.64100
Mn282      Mn  0.04821152  0.04346997  0.98551503     1.10700
C283        C  0.07873141  0.08680768  0.58224259     0.98900
C284        C  0.11617232  0.45361664  0.49486309     0.99000
N285        N  0.48354868  0.42748077  0.53581844    -0.06300
N286        N  0.47846292  0.39437050  0.54353372    -0.61700
N287        N  0.48227642  0.99718790  0.58626066    -0.05600
N288        N  0.47909305  0.00001511  0.61971120    -0.58400
N289        N  0.45138439  0.98981594  0.57224259    -0.06900
N290        N  0.42676456  0.98828846  0.59538869    -0.61300
N291        N  0.51505849  0.43676272  0.54714378    -0.05900
N292        N  0.03225702  0.41047130  0.56112527    -0.58400
Mn293      Mn  0.44451680  0.46940819  0.52089021     1.20200
Mn294      Mn  0.03112929  0.48992642  0.55634124     1.10100
Cl295      Cl  0.49645424  0.00624391  0.00284726    -0.86400
C296        C  0.50961721  0.38414635  0.55848921     0.95900
C297        C  0.44411510  0.99496668  0.62460893     0.95700
N298        N  0.30196093  0.32067222  0.96413700    -0.06600
N299        N  0.32734883  0.34143083  0.95366350    -0.58700
N300        N  0.21252371  0.32676374  0.96193372    -0.06200
N301        N  0.18452999  0.34546014  0.95154926    -0.60800
N302        N  0.22786175  0.34245599  0.48792674    -0.05800
N303        N  0.21103586  0.37174128  0.49590692    -0.58700
N304        N  0.28795149  0.30386243  0.93802315    -0.05500
N305        N  0.30419348  0.31219943  0.90958515    -0.61200
C306        C  0.32888282  0.33563812  0.91952236     0.95600
C307        C  0.18430085  0.37352934  0.97308838     0.95400
N308        N  0.18323855  0.22034743  0.96651643    -0.06700
N309        N  0.15874281  0.19980443  0.95348941    -0.59300
N310        N  0.25989549  0.22532435  0.92828242    -0.04900
N311        N  0.27201465  0.21470904  0.89838462    -0.60500
N312        N  0.25718803  0.19848826  0.94859030    -0.06800
N313        N  0.26796875  0.16961978  0.93352168    -0.59500
N314        N  0.18619766  0.24845156  0.94774096    -0.04500
N315        N  0.16331536  0.24733323  0.92223753    -0.60600
Mn316      Mn  0.23644032  0.27635152  0.94340049     1.18400
C317        C  0.14632127  0.21720178  0.92626456     0.97700
C318        C  0.27750247  0.18002639  0.90267991     0.98400
N319        N  0.24514498  0.32115703  0.56161129    -0.06800
N320        N  0.23510218  0.35030171  0.57668171    -0.63100
N321        N  0.31506763  0.27055113  0.56224866    -0.05600
N322        N  0.33902726  0.27047630  0.58681769    -0.63800
N323        N  0.31863942  0.29848487  0.54324110    -0.06300
N324        N  0.34462702  0.31780832  0.55533342    -0.63400
N325        N  0.24171130  0.29435051  0.58198810    -0.05200
N326        N  0.22998259  0.30549627  0.61192751    -0.64100
Mn327      Mn  0.27407377  0.32061244  0.51407173     1.10700
C328        C  0.22540824  0.34034637  0.60759989     0.98900
C329        C  0.35729577  0.29969290  0.58205066     0.99000
N330        N  0.27406855  0.17713321  0.52207714    -0.06300
N331        N  0.29052965  0.14777324  0.01381411    -0.61700
N332        N  0.21310707  0.21367072  0.57215380    -0.05600
N333        N  0.19652306  0.20155113  0.59935503    -0.58400
N334        N  0.19952689  0.19968778  0.54430301    -0.06900
N335        N  0.17372803  0.17857090  0.55184903    -0.61300
N336        N  0.28904210  0.19215522  0.54860368    -0.05900
N337        N  0.31671182  0.17295181  0.55906816    -0.58400
Mn338      Mn  0.22806637  0.19929605  0.99565881     1.20200
Mn339      Mn  0.26480852  0.24250768  0.56723099     1.10100
Cl340      Cl  0.25091139  0.25979391  0.50520605    -0.86400
C341        C  0.31708272  0.14530566  0.53692871     0.95900
C342        C  0.17143087  0.17980463  0.58615223     0.95700
N343        N  0.44906115  0.27482634  0.69024379    -0.06600
N344        N  0.42667467  0.27415407  0.66451125    -0.58700
N345        N  0.52249914  0.31585899  0.69118116    -0.06200
N346        N  0.02533438  0.34115503  0.66887211    -0.60800
N347        N  0.52554935  0.28544855  0.67522825    -0.05800
N348        N  0.03093746  0.28977314  0.64257752    -0.58700
N349        N  0.44696813  0.30510160  0.70646066    -0.05500
N350        N  0.42360321  0.32590823  0.69105879    -0.61200
C351        C  0.41083529  0.30569506  0.66548929     0.95600
C352        C  0.03110789  0.32442584  0.63888152     0.95400
N353        N  0.04634880  0.31518912  0.79784904    -0.06700
N354        N  0.07694920  0.32399256  0.81147316    -0.59300
N355        N  0.45823457  0.32461503  0.78660762    -0.04900
N356        N  0.43082787  0.34535241  0.79459752    -0.60500
N357        N  0.46749901  0.30593213  0.81317372    -0.06800
N358        N  0.44709264  0.31346275  0.83939830    -0.59500
N359        N  0.03902175  0.33336248  0.77047459    -0.04500
N360        N  0.06493371  0.35515707  0.76480479    -0.60600
Mn361      Mn  0.49153454  0.32091756  0.73907525     1.18400
C362        C  0.08805748  0.34891836  0.79078515     0.97700
C363        C  0.42391292  0.33782336  0.82768491     0.98400
N364        N  0.04384874  0.20757600  0.69245860    -0.06800
N365        N  0.06401900  0.19986417  0.66616670    -0.63100
N366        N  0.47170844  0.17948255  0.73432737    -0.05600
N367        N  0.44548810  0.15816806  0.74036810    -0.63800
N368        N  0.46440641  0.19771212  0.70699347    -0.06300
N369        N  0.43345849  0.18935134  0.69375423    -0.63400
N370        N  0.05256926  0.18812528  0.71864317    -0.05200
N371        N  0.07898762  0.16636335  0.71001493    -0.64100
Mn372      Mn  0.49610941  0.24091830  0.69142381     1.10700
C373        C  0.08662828  0.17469836  0.67727904     0.98900
C374        C  0.42218461  0.16459683  0.71460758     0.99000
N375        N  0.98482876  0.22775828  0.82934453    -0.06300
N376        N  0.47664544  0.22341535  0.86138275    -0.61700
N377        N  0.06343757  0.20764809  0.79886355    -0.05600
N378        N  0.08656003  0.18696558  0.81478850    -0.58400
N379        N  0.06165958  0.23826266  0.81445399    -0.06900
N380        N  0.08414742  0.23935519  0.84005110    -0.61300
N381        N  0.98720949  0.19743917  0.81320020    -0.05900
N382        N  0.48094494  0.17203432  0.83463097    -0.58400
Mn383      Mn  0.01477618  0.27219530  0.81360093     1.20200
Mn384      Mn  0.01896065  0.19187162  0.76595729     1.10100
Cl385      Cl  0.50533053  0.25645895  0.75247141    -0.86400
C386        C  0.47380641  0.18882197  0.86432902     0.95900
C387        C  0.09964753  0.20768071  0.83985900     0.95700
N388        N  0.28593077  0.46431390  0.82438847    -0.06600
N389        N  0.29410470  0.43830310  0.84542062    -0.58700
N390        N  0.29429259  0.05016956  0.81708395    -0.06200
N391        N  0.30541012  0.08138850  0.82550701    -0.60800
N392        N  0.26470372  0.04306924  0.83264637    -0.05800
N393        N  0.25496858  0.06981975  0.85215782    -0.58700
N394        N  0.31417768  0.47291077  0.80738801    -0.05500
N395        N  0.34169031  0.45309102  0.81614919    -0.61200
C396        C  0.32918180  0.43162454  0.83999537     0.95600
C397        C  0.28089463  0.09314720  0.84734150     0.95400
N398        N  0.29901421  0.06867693  0.71439998    -0.06700
N399        N  0.31061273  0.09605922  0.69803909    -0.59300
N400        N  0.33453395  0.49074868  0.73110068    -0.04900
N401        N  0.36833902  0.48257933  0.72690502    -0.60500
N402        N  0.31804422  0.49302042  0.70140550    -0.06800
N403        N  0.34058498  0.48610984  0.67675207    -0.59500
N404        N  0.31506960  0.06614817  0.74419631    -0.04500
N405        N  0.33705458  0.09186971  0.74901841    -0.60600
Mn406      Mn  0.31485244  0.01944301  0.77526276     1.18400
C407        C  0.33368239  0.11053281  0.72052083     0.97700
C408        C  0.37156603  0.47912188  0.69301100     0.98400
N409        N  0.18433651  0.02569175  0.81117029    -0.06800
N410        N  0.16067077  0.02990075  0.83546452    -0.63100
N411        N  0.18952746  0.45390221  0.76744091    -0.05600
N412        N  0.16897926  0.42730016  0.76149169    -0.63800
N413        N  0.20562249  0.45098790  0.79722446    -0.06300
N414        N  0.19541625  0.42237725  0.81246873    -0.63400
N415        N  0.16843362  0.02859419  0.78120600    -0.05200
N416        N  0.13413805  0.03469378  0.78491329    -0.64100
Mn417      Mn  0.23516241  0.49582151  0.81763204     1.10700
C418        C  0.12969413  0.03601765  0.81874896     0.98900
C419        C  0.17321935  0.40771462  0.78926510     0.99000
N420        N  0.23855821  0.47753096  0.67904709    -0.06300
N421        N  0.24806259  0.45106624  0.65902119    -0.61700
N422        N  0.18985852  0.04823857  0.70522418    -0.05600
N423        N  0.16235481  0.06713396  0.69448603    -0.58400
N424        N  0.21860497  0.05675082  0.68894117    -0.06900
N425        N  0.21088277  0.08183815  0.66686745    -0.61300
N426        N  0.20900537  0.47038535  0.69453220    -0.05900
N427        N  0.19764776  0.43935143  0.68554816    -0.58400
Mn428      Mn  0.26852313  0.02420083  0.69484859     1.20200
Mn429      Mn  0.18891184  0.50096116  0.73683854     1.10100
Cl430      Cl  0.25191033  0.01011869  0.75618051    -0.86400
C431        C  0.22200640  0.42776141  0.66339348     0.95900
C432        C  0.17572874  0.08878658  0.67115461     0.95700
C433        C  0.36027265  0.13469348  0.71214620    -0.13700
C434        C  0.38791053  0.14962146  0.71156561    -0.15300
C435        C  0.14827117  0.38152294  0.79611280    -0.13700
C436        C  0.12152183  0.36516876  0.79505270    -0.15300
C437        C  0.22100640  0.36593253  0.63384935    -0.13700
C438        C  0.22139332  0.39342558  0.64882836    -0.15300
C439        C  0.28147629  0.12749444  0.86139390    -0.13700
C440        C  0.28203194  0.15489381  0.87629507    -0.15300
C441        C  0.12957212  0.20052268  0.89787903    -0.13700
C442        C  0.11749787  0.19614847  0.86982470    -0.15300
C443        C  0.37711191  0.31479261  0.60935080    -0.13700
C444        C  0.39153884  0.31770478  0.63652887    -0.15300
C445        C  0.34266753  0.11667805  0.53569690    -0.13700
C446        C  0.36032119  0.09116061  0.02769284    -0.15300
C447        C  0.13866013  0.42582973  0.48152834    -0.13700
C448        C  0.15804671  0.40143291  0.97422917    -0.15300
C449        C  0.07112178  0.52339504  0.85196009    -0.13700
C450        C  0.09581705  0.03077134  0.83416146    -0.15300
C451        C  0.40475321  0.48239223  0.67627300    -0.13700
C452        C  0.42758488  0.98888651  0.65637211    -0.15300
C453        C  0.02306469  0.33996301  0.60660827    -0.13700
C454        C  0.51422103  0.35580262  0.58145667    -0.15300
C455        C  0.47710290  0.17242608  0.89675247    -0.13700
C456        C  0.98227475  0.15627881  0.92242148    -0.15300
C457        C  0.39853005  0.85794181  0.35126931     0.86000
C458        C  0.41896436  0.88053369  0.37705849    -0.54200
C459        C  0.39838265  0.89947664  0.39904181     0.09000
C460        C  0.35792356  0.89396717  0.39307062     0.19900
C461        C  0.37428696  0.83531986  0.37303161    -0.54900
C462        C  0.35321512  0.85370359  0.39548796     0.09100
C463        C  0.37323308  0.88358336  0.33338966    -0.54400
C464        C  0.35158456  0.90259481  0.35458564     0.09600
H465        H  0.44767139  0.88205904  0.37733267     0.14200
H466        H  0.34090904  0.90958869  0.41060173    -0.00100
H467        H  0.37445205  0.80701945  0.37132702     0.14500
H468        H  0.37308197  0.88717158  0.30604869     0.14300
C469        C  0.10294339  0.60919462  0.10494483     0.86000
C470        C  0.12452948  0.63561597  0.08552580    -0.54200
C471        C  0.14692467  0.65577525  0.10480240     0.09000
C472        C  0.14457318  0.64733920  0.14374221     0.19900
C473        C  0.13055660  0.58794546  0.12525104    -0.54900
C474        C  0.15232296  0.60722718  0.14590985     0.09100
C475        C  0.08315678  0.63082378  0.13165445    -0.54400
C476        C  0.10418559  0.65073496  0.15236276     0.09600
H477        H  0.12275315  0.63751520  0.05805068     0.14200
H478        H  0.16194505  0.66340679  0.16035971    -0.00100
H479        H  0.13168488  0.55960911  0.12457814     0.14500
H480        H  0.05447601  0.63078422  0.13375056     0.14300
N481        N  0.04249321  0.02244597  0.43441687    -0.06600
N482        N  0.06818445  0.02370090  0.41241310    -0.58700
N483        N  0.47853053  0.57605098  0.45805423    -0.06200
N484        N  0.46233945  0.60234611  0.44311632    -0.60800
N485        N  0.00970619  0.58507430  0.47017010    -0.05800
N486        N  0.01556741  0.61792713  0.46219770    -0.58700
N487        N  0.01208578  0.01518417  0.41931886    -0.05500
N488        N  0.01688829  0.01243518  0.38594815    -0.61200
C489        C  0.05230098  0.01718610  0.38252085     0.95600
C490        C  0.98517299  0.62836236  0.44611678     0.95400
N491        N  0.40972350  0.51484021  0.50867854    -0.06700
N492        N  0.38757878  0.53168672  0.02937042    -0.59300
N493        N  0.44376063  0.96848651  0.44149749    -0.04900
N494        N  0.43111276  0.95437542  0.41303397    -0.60500
N495        N  0.43618814  0.94902756  0.46768664    -0.06800
N496        N  0.41795408  0.92146491  0.45735384    -0.59500
N497        N  0.41616444  0.53393749  0.48197565    -0.04500
N498        N  0.39853832  0.56401741  0.48395533    -0.60600
Mn499      Mn  0.46235298  0.52281564  0.44940633     1.18400
C500        C  0.38062262  0.56220710  0.51333719     0.97700
C501        C  0.41494029  0.92511972  0.42315238     0.98400
N502        N  0.05543552  0.56392902  0.03843897    -0.06800
N503        N  0.07454055  0.59088843  0.04834072    -0.63100
N504        N  0.07755868  0.97967514  0.02431459    -0.05600
N505        N  0.09698528  0.95066674  0.02320824    -0.63800
N506        N  0.08397502  0.99908361  0.49802801    -0.06300
N507        N  0.10807192  0.98368111  0.47844620    -0.63400
N508        N  0.04868536  0.54426300  0.06464983    -0.05200
N509        N  0.06281896  0.55771289  0.09278796    -0.64100
Mn510      Mn  0.04830290  0.54340742  0.48567699     1.10700
C511        C  0.07878725  0.58698930  0.08238645     0.98900
C512        C  0.11603655  0.95364463  0.99463173     0.99000
N513        N  0.48356152  0.92744910  0.03573063    -0.06300
N514        N  0.47847750  0.89435700  0.04351224    -0.61700
N515        N  0.48229051  0.49735260  0.08633890    -0.05600
N516        N  0.47909380  0.50022821  0.11978729    -0.58400
N517        N  0.45140759  0.48991542  0.07232490    -0.06900
N518        N  0.42679095  0.48839074  0.09547338    -0.61300
N519        N  0.51507801  0.93674715  0.04701802    -0.05900
N520        N  0.03209912  0.91049375  0.06105745    -0.58400
Mn521      Mn  0.44450371  0.96935076  0.02081504     1.20200
Mn522      Mn  0.03104317  0.98995192  0.05616339     1.10100
Cl523      Cl  0.49651491  0.50625774  0.50297824    -0.86400
C524        C  0.50963845  0.88415652  0.05846726     0.95900
C525        C  0.44412145  0.49513559  0.12468803     0.95700
N526        N  0.30187603  0.82075451  0.46417343    -0.06600
N527        N  0.32724894  0.84152392  0.45368622    -0.58700
N528        N  0.21245819  0.82677750  0.46201202    -0.06200
N529        N  0.18449004  0.84549404  0.45160923    -0.60800
N530        N  0.22777657  0.84247136  0.98801369    -0.05800
N531        N  0.21094755  0.87176700  0.99596552    -0.58700
N532        N  0.28785222  0.80394770  0.43806424    -0.05500
N533        N  0.30406706  0.81229600  0.40961770    -0.61200
C534        C  0.32875270  0.83573979  0.41954119     0.95600
C535        C  0.18427568  0.87355611  0.47315163     0.95400
N536        N  0.18320364  0.72034375  0.46653703    -0.06700
N537        N  0.15875647  0.69975775  0.45348492    -0.59300
N538        N  0.25984590  0.72540185  0.42827248    -0.04900
N539        N  0.27193153  0.71481256  0.39835291    -0.60500
N540        N  0.25715588  0.69854993  0.44856358    -0.06800
N541        N  0.26791430  0.66969321  0.43345686    -0.59500
N542        N  0.18614857  0.74844443  0.44775123    -0.04500
N543        N  0.16331247  0.74727095  0.42221015    -0.60600
Mn544      Mn  0.23637266  0.77639696  0.44343721     1.18400
C545        C  0.14635492  0.71711744  0.42622853     0.97700
C546        C  0.27741863  0.68012473  0.40261274     0.98400
N547        N  0.24514876  0.82117040  0.06172485    -0.06800
N548        N  0.23509367  0.85028995  0.07683435    -0.63100
N549        N  0.31507552  0.77051825  0.06224899    -0.05600
N550        N  0.33907659  0.77037107  0.08677961    -0.63800
N551        N  0.31863596  0.79847996  0.04328259    -0.06300
N552        N  0.34465785  0.81775989  0.05537574    -0.63400
N553        N  0.24172959  0.79434052  0.08207166    -0.05200
N554        N  0.22998669  0.80543103  0.11202104    -0.64100
Mn555      Mn  0.27403189  0.82063585  0.01414914     1.10700
C556        C  0.22539566  0.84028094  0.10773722     0.98900
C557        C  0.35736010  0.79958325  0.08204398     0.99000
N558        N  0.27403577  0.67720565  0.02207148    -0.06300
N559        N  0.29066501  0.64790932  0.51375239    -0.61700
N560        N  0.21312088  0.71376008  0.07222011    -0.05600
N561        N  0.19654823  0.70167910  0.09944092    -0.58400
N562        N  0.19952471  0.69976429  0.04438475    -0.06900
N563        N  0.17372531  0.67866712  0.05195945    -0.61300
N564        N  0.28900252  0.69220959  0.04860989    -0.05900
N565        N  0.31666423  0.67300373  0.05907803    -0.58400
Mn566      Mn  0.22806703  0.69933054  0.49566801     1.20200
Mn567      Mn  0.26480810  0.74253521  0.06726349     1.10100
Cl568      Cl  0.25084913  0.75982991  0.00524947    -0.86400
C569        C  0.31704263  0.64537558  0.03692365     0.95900
C570        C  0.17144860  0.67993456  0.08626192     0.95700
N571        N  0.44891511  0.77477655  0.19039855    -0.06600
N572        N  0.42650552  0.77406581  0.16468809    -0.58700
N573        N  0.52231114  0.81591795  0.19124856    -0.06200
N574        N  0.02512351  0.84122668  0.16889188    -0.60800
N575        N  0.52538433  0.78551409  0.17529142    -0.05800
N576        N  0.03077867  0.78986289  0.14257173    -0.58700
N577        N  0.44680895  0.80505775  0.20660220    -0.05500
N578        N  0.42341874  0.82583606  0.19119645    -0.61200
C579        C  0.41064379  0.80559388  0.16564912     0.95600
C580        C  0.03088303  0.82451967  0.13889094     0.95400
N581        N  0.04642443  0.81516544  0.29776869    -0.06700
N582        N  0.07707123  0.82395607  0.31130948    -0.59300
N583        N  0.45820347  0.82457190  0.28671725    -0.04900
N584        N  0.43076164  0.84525745  0.29469915    -0.60500
N585        N  0.46753783  0.80593519  0.31329316    -0.06800
N586        N  0.44713068  0.81345040  0.33952496    -0.59500
N587        N  0.03901488  0.83336919  0.27043008    -0.04500
N588        N  0.06490604  0.85517566  0.26471025    -0.60600
Mn589      Mn  0.49141108  0.82092440  0.23915972     1.18400
C590        C  0.08811460  0.84891221  0.29061627     0.97700
C591        C  0.42388865  0.83775330  0.32779403     0.98400
N592        N  0.04381251  0.70765974  0.19247841    -0.06800
N593        N  0.06403990  0.70001098  0.16621533    -0.63100
N594        N  0.47166324  0.67947719  0.23439151    -0.05600
N595        N  0.44546062  0.65813512  0.24041935    -0.63800
N596        N  0.46435378  0.69769546  0.20705287    -0.06300
N597        N  0.43342193  0.68930232  0.19379825    -0.63400
N598        N  0.05253729  0.68820989  0.21866125    -0.05200
N599        N  0.07901611  0.66651537  0.21006809    -0.64100
Mn600      Mn  0.49600455  0.74093602  0.19149762     1.10700
C601        C  0.08668150  0.67488520  0.17735321     0.98900
C602        C  0.42216156  0.66453793  0.21464640     0.99000
N603        N  0.98487372  0.72774722  0.32937456    -0.06300
N604        N  0.47675703  0.72340730  0.36147513    -0.61700
N605        N  0.06344438  0.70760601  0.29884575    -0.05600
N606        N  0.08655063  0.68689570  0.31476084    -0.58400
N607        N  0.06170461  0.73821996  0.31443751    -0.06900
N608        N  0.08420022  0.73928190  0.34003162    -0.61300
N609        N  0.98722946  0.69742864  0.31322247    -0.05900
N610        N  0.48101573  0.67202871  0.33471258    -0.58400
Mn611      Mn  0.01483567  0.77218265  0.31359723     1.20200
Mn612      Mn  0.01894039  0.69187863  0.26595258     1.10100
Cl613      Cl  0.50528773  0.75646762  0.25253929    -0.86400
C614        C  0.47391466  0.68881388  0.36442090     0.95900
C615        C  0.09966931  0.70759141  0.33983193     0.95700
N616        N  0.28604516  0.96439951  0.32432772    -0.06600
N617        N  0.29420357  0.93839073  0.34536585    -0.58700
N618        N  0.29415830  0.55022615  0.31706086    -0.06200
N619        N  0.30528468  0.58145331  0.32544270    -0.60800
N620        N  0.26457048  0.54315364  0.33263596    -0.05800
N621        N  0.25484544  0.56993281  0.35211645    -0.58700
N622        N  0.31430859  0.97300669  0.30735491    -0.05500
N623        N  0.34181879  0.95318956  0.31614568    -0.61200
C624        C  0.32928683  0.93171687  0.33998070     0.95600
C625        C  0.28077614  0.59324940  0.34726667     0.95400
N626        N  0.29888612  0.56869364  0.21440346    -0.06700
N627        N  0.31052968  0.59605240  0.19803383    -0.59300
N628        N  0.33465136  0.99078661  0.23104830    -0.04900
N629        N  0.36844055  0.98254268  0.22686769    -0.60500
N630        N  0.31815879  0.99300281  0.20135250    -0.06800
N631        N  0.34067605  0.98596892  0.17671027    -0.59500
N632        N  0.31493573  0.56615670  0.24419980    -0.04500
N633        N  0.33695665  0.59184691  0.24901845    -0.60600
Mn634      Mn  0.31469621  0.51946631  0.27525717     1.18400
C635        C  0.33361730  0.61050288  0.22051620     0.97700
C636        C  0.37164857  0.97896938  0.19298070     0.98400
N637        N  0.18418455  0.52573436  0.31120044    -0.06800
N638        N  0.16053178  0.52993468  0.33550656    -0.63100
N639        N  0.18966674  0.95393853  0.26733557    -0.05600
N640        N  0.16913110  0.92733890  0.26133886    -0.63800
N641        N  0.20573229  0.95101139  0.29712887    -0.06300
N642        N  0.19549927  0.92238947  0.31234227    -0.63400
N643        N  0.16825512  0.52859388  0.28124184    -0.05200
N644        N  0.13395362  0.53464862  0.28496949    -0.64100
Mn645      Mn  0.23525553  0.99587688  0.31754322     1.10700
C646        C  0.12953708  0.53599706  0.31880818     0.98900
C647        C  0.17332626  0.90773707  0.28910175     0.99000
N648        N  0.23869770  0.97746470  0.17901183    -0.06300
N649        N  0.24821174  0.95093208  0.15907273    -0.61700
N650        N  0.18972297  0.54825705  0.20527922    -0.05600
N651        N  0.16225537  0.56723409  0.19459166    -0.58400
N652        N  0.21848433  0.55677053  0.18902440    -0.06900
N653        N  0.21081600  0.58193364  0.16702331    -0.61300
N654        N  0.20912790  0.97037599  0.19449418    -0.05900
N655        N  0.19776473  0.93932417  0.18559273    -0.58400
Mn656      Mn  0.26837486  0.52421298  0.19488093     1.20200
Mn657      Mn  0.18903836  0.00098318  0.23676652     1.10100
Cl658      Cl  0.25174844  0.51014098  0.25623160    -0.86400
C659        C  0.22213796  0.92765572  0.16349773     0.95900
C660        C  0.17567742  0.58892998  0.17132013     0.95700
C661        C  0.36024432  0.63463017  0.21215038    -0.13700
C662        C  0.38789373  0.64954322  0.21159207    -0.15300
C663        C  0.14833132  0.88156121  0.29590076    -0.13700
C664        C  0.12157599  0.86520402  0.29483196    -0.15300
C665        C  0.22102173  0.86581394  0.13402653    -0.13700
C666        C  0.22147464  0.89330176  0.14899984    -0.15300
C667        C  0.28137865  0.62761212  0.36129479    -0.13700
C668        C  0.28193804  0.65501127  0.37620218    -0.15300
C669        C  0.12962692  0.70041112  0.39783915    -0.13700
C670        C  0.11753643  0.69603902  0.36978767    -0.15300
C671        C  0.37711700  0.81466191  0.10939809    -0.13700
C672        C  0.39143310  0.81758799  0.13663031    -0.15300
C673        C  0.34259052  0.61672549  0.03573538    -0.13700
C674        C  0.36053144  0.59137861  0.52768940    -0.15300
C675        C  0.13857643  0.92587702  0.98134920    -0.13700
C676        C  0.15807637  0.90148641  0.47425533    -0.15300
C677        C  0.07115105  0.02324676  0.35178336    -0.13700
C678        C  0.09569336  0.53070507  0.33425405    -0.15300
C679        C  0.40483379  0.98213805  0.17622150    -0.13700
C680        C  0.42756769  0.48909923  0.15645569    -0.15300
C681        C  0.02278779  0.84006196  0.10663577    -0.13700
C682        C  0.51422859  0.85587285  0.08150423    -0.15300
C683        C  0.47725538  0.67241758  0.39684194    -0.13700
C684        C  0.98248452  0.65623476  0.42246377    -0.15300
C685        C  0.39860479  0.85793783  0.85132157     0.86000
C686        C  0.41904508  0.88059866  0.87704413    -0.54200
C687        C  0.39846179  0.89951538  0.89904594     0.09000
C688        C  0.35800847  0.89393996  0.89314425     0.19900
C689        C  0.37444823  0.83529991  0.87315459    -0.54900
C690        C  0.35337437  0.85367519  0.89561273     0.09100
C691        C  0.37323088  0.88350694  0.83345061    -0.54400
C692        C  0.35159502  0.90251326  0.85465959     0.09600
H693        H  0.44774845  0.88216972  0.87727627     0.14200
H694        H  0.34099766  0.90955460  0.91068442    -0.00100
H695        H  0.37464987  0.80699777  0.87147365     0.14500
H696        H  0.37303249  0.88706729  0.80610529     0.14300
C697        C  0.10291880  0.60911114  0.60494295     0.86000
C698        C  0.12447279  0.63554873  0.58550707    -0.54200
C699        C  0.14686155  0.65572672  0.60477046     0.09000
C700        C  0.14453041  0.64729830  0.64371149     0.19900
C701        C  0.13056136  0.58788776  0.62523783    -0.54900
C702        C  0.15231813  0.60719775  0.64588137     0.09100
C703        C  0.08312530  0.63072453  0.63165965    -0.54400
C704        C  0.10414695  0.65065588  0.65235505     0.09600
H705        H  0.12269002  0.63743880  0.55803143     0.14200
H706        H  0.16189588  0.66338301  0.66031871    -0.00100
H707        H  0.13171273  0.55955170  0.62457476     0.14500
H708        H  0.05444646  0.63065870  0.63377081     0.14300
N709        N  0.04246846  0.02256711  0.93445469    -0.06600
N710        N  0.06816278  0.02385794  0.91245868    -0.58700
N711        N  0.47842898  0.57606411  0.95805262    -0.06200
N712        N  0.46223243  0.60236491  0.94312681    -0.60800
N713        N  0.00967689  0.58515246  0.97016648    -0.05800
N714        N  0.01550500  0.61802720  0.96225343    -0.58700
N715        N  0.01205940  0.01532716  0.91934540    -0.05500
N716        N  0.01687129  0.01263062  0.88597157    -0.61200
C717        C  0.05228582  0.01739302  0.88255586     0.95600
C718        C  0.98510398  0.62846047  0.94618359     0.95400
N719        N  0.40966503  0.51478891  0.00870278    -0.06700
N720        N  0.38763628  0.53176516  0.52932447    -0.59300
N721        N  0.44375718  0.96853469  0.94152573    -0.04900
N722        N  0.43114925  0.95441804  0.91305162    -0.60500
N723        N  0.43618263  0.94906506  0.96770767    -0.06800
N724        N  0.41797888  0.92149084  0.95736113    -0.59500
N725        N  0.41607786  0.53390692  0.98200724    -0.04500
N726        N  0.39843089  0.56397347  0.98401301    -0.60600
Mn727      Mn  0.46224470  0.52282141  0.94939182     1.18400
C728        C  0.38053349  0.56213338  0.01340324     0.97700
C729        C  0.41499783  0.92514972  0.92315938     0.98400
N730        N  0.05541667  0.56383153  0.53845841    -0.06800
N731        N  0.07452370  0.59078757  0.54835475    -0.63100
N732        N  0.07750155  0.97960068  0.52436141    -0.05600
N733        N  0.09704141  0.95066328  0.52332961    -0.63800
N734        N  0.08401349  0.99914535  0.99797074    -0.06300
N735        N  0.10798731  0.98365742  0.97830241    -0.63400
N736        N  0.04866318  0.54417076  0.56467245    -0.05200
N737        N  0.06279877  0.55762092  0.59280899    -0.64100
Mn738      Mn  0.04829435  0.54349962  0.98565473     1.10700
C739        C  0.07877092  0.58689176  0.58239855     0.98900
C740        C  0.11617621  0.95370706  0.49481062     0.99000
N741        N  0.48350704  0.92737664  0.53569398    -0.06300
N742        N  0.47836749  0.89429334  0.54347123    -0.61700
N743        N  0.48230609  0.49732180  0.58636303    -0.05600
N744        N  0.47911548  0.50016402  0.61981285    -0.58400
N745        N  0.45141441  0.48993769  0.57234023    -0.06900
N746        N  0.42679486  0.48841922  0.59548704    -0.61300
N747        N  0.51503128  0.93663914  0.54698960    -0.05900
N748        N  0.03200528  0.91035219  0.56104182    -0.58400
Mn749      Mn  0.44452115  0.96932270  0.52079395     1.20200
Mn750      Mn  0.03097450  0.98985456  0.55620130     1.10100
Cl751      Cl  0.49646468  0.50625679  0.00294291    -0.86400
C752        C  0.50950832  0.88405143  0.55843269     0.95900
C753        C  0.44413743  0.49511114  0.62470811     0.95700
N754        N  0.30193906  0.82077849  0.96424568    -0.06600
N755        N  0.32734743  0.84152161  0.95378801    -0.58700
N756        N  0.21250546  0.82676916  0.96200646    -0.06200
N757        N  0.18450970  0.84543145  0.95158136    -0.60800
N758        N  0.22778562  0.84246303  0.48799743    -0.05800
N759        N  0.21103495  0.87179432  0.49595560    -0.58700
N760        N  0.28794918  0.80395828  0.93812827    -0.05500
N761        N  0.30421946  0.81227554  0.90970327    -0.61200
C762        C  0.32890517  0.83570895  0.91965082     0.95600
C763        C  0.18420501  0.87348461  0.97313130     0.95400
N764        N  0.18326203  0.72038490  0.96656529    -0.06700
N765        N  0.15879159  0.69980644  0.95354593    -0.59300
N766        N  0.25991473  0.72541297  0.92829430    -0.04900
N767        N  0.27193659  0.71481461  0.89835390    -0.60500
N768        N  0.25720165  0.69855927  0.94858050    -0.06800
N769        N  0.26788396  0.66968966  0.93344643    -0.59500
N770        N  0.18622713  0.74845890  0.94774665    -0.04500
N771        N  0.16338667  0.74727291  0.92220830    -0.60600
Mn772      Mn  0.23645687  0.77640714  0.94345615     1.18400
C773        C  0.14640047  0.71714081  0.92627102     0.97700
C774        C  0.27736505  0.68011763  0.90259325     0.98400
N775        N  0.24513131  0.82115207  0.56168971    -0.06800
N776        N  0.23512395  0.85028011  0.57681256    -0.63100
N777        N  0.31501154  0.77048913  0.56221280    -0.05600
N778        N  0.33898795  0.77034413  0.58676406    -0.63800
N779        N  0.31859524  0.79844480  0.54324258    -0.06300
N780        N  0.34460360  0.81772870  0.55536085    -0.63400
N781        N  0.24168001  0.79432040  0.58202967    -0.05200
N782        N  0.22996652  0.80541850  0.61198742    -0.64100
Mn783      Mn  0.27400855  0.82060411  0.51410538     1.10700
C784        C  0.22542462  0.84027527  0.60771604     0.98900
C785        C  0.35727737  0.79955300  0.58204294     0.99000
N786        N  0.27399723  0.67718381  0.52203637    -0.06300
N787        N  0.29065976  0.64790073  0.01381197    -0.61700
N788        N  0.21305645  0.71371494  0.57218316    -0.05600
N789        N  0.19648152  0.70163238  0.59940244    -0.58400
N790        N  0.19946562  0.69971216  0.54434883    -0.06900
N791        N  0.17366692  0.67861118  0.55192139    -0.61300
N792        N  0.28896144  0.69220026  0.54856835    -0.05900
N793        N  0.31666709  0.67303851  0.55900569    -0.58400
Mn794      Mn  0.22811939  0.69936528  0.99569799     1.20200
Mn795      Mn  0.26474510  0.74250921  0.56722311     1.10100
Cl796      Cl  0.25078692  0.75980700  0.50521704    -0.86400
C797        C  0.31707303  0.64541912  0.53684203     0.95900
C798        C  0.17138477  0.67988336  0.58622358     0.95700
N799        N  0.44895645  0.77475179  0.69039665    -0.06600
N800        N  0.42655770  0.77401921  0.66467717    -0.58700
N801        N  0.52231880  0.81593955  0.69128298    -0.06200
N802        N  0.02513144  0.84116503  0.66888180    -0.60800
N803        N  0.52542272  0.78553353  0.67533310    -0.05800
N804        N  0.03076493  0.78979139  0.64257965    -0.58700
N805        N  0.44682665  0.80503604  0.70659437    -0.05500
N806        N  0.42342638  0.82579382  0.69117388    -0.61200
C807        C  0.41067388  0.80553672  0.66562472     0.95600
C808        C  0.03086543  0.82444510  0.63888309     0.95400
N809        N  0.04638054  0.81513520  0.79776544    -0.06700
N810        N  0.07700766  0.82393932  0.81133492    -0.59300
N811        N  0.45821528  0.82456856  0.78673278    -0.04900
N812        N  0.43079713  0.84527409  0.79473579    -0.60500
N813        N  0.46754918  0.80591683  0.81329783    -0.06800
N814        N  0.44716547  0.81343648  0.83954238    -0.59500
N815        N  0.03896724  0.83336728  0.77044568    -0.04500
N816        N  0.06483250  0.85521722  0.76477413    -0.60600
Mn817      Mn  0.49141533  0.82092968  0.73917950     1.18400
C818        C  0.08803081  0.84894076  0.79068608     0.97700
C819        C  0.42393710  0.83775664  0.82782972     0.98400
N820        N  0.04381114  0.70760279  0.69250302    -0.06800
N821        N  0.06400712  0.69993079  0.66622403    -0.63100
N822        N  0.47173689  0.67945647  0.73438653    -0.05600
N823        N  0.44554022  0.65810696  0.74041110    -0.63800
N824        N  0.46442704  0.69767311  0.70704756    -0.06300
N825        N  0.43349987  0.68927070  0.69378832    -0.63400
N826        N  0.05254369  0.68815723  0.71868805    -0.05200
N827        N  0.07900206  0.66644344  0.71007798    -0.64100
Mn828      Mn  0.49605954  0.74093813  0.69151675     1.10700
C829        C  0.08664357  0.67479935  0.67735250     0.98900
C830        C  0.42224396  0.66450216  0.71463464     0.99000
N831        N  0.98482402  0.72774971  0.82937567    -0.06300
N832        N  0.47673003  0.72341493  0.86145603    -0.61700
N833        N  0.06342436  0.70756941  0.79890558    -0.05600
N834        N  0.08649642  0.68685072  0.81485706    -0.58400
N835        N  0.06165808  0.73818191  0.81450075    -0.06900
N836        N  0.08409848  0.73923067  0.84014050    -0.61300
N837        N  0.98722275  0.69741078  0.81326585    -0.05900
N838        N  0.48102295  0.67203056  0.83470599    -0.58400
Mn839      Mn  0.01479082  0.77215910  0.81359077     1.20200
Mn840      Mn  0.01894355  0.69184107  0.76599173     1.10100
Cl841      Cl  0.50531423  0.75647202  0.75254976    -0.86400
C842        C  0.47389039  0.68882219  0.86440391     0.95900
C843        C  0.09956517  0.70753958  0.83995742     0.95700
N844        N  0.28604788  0.96428573  0.82438079    -0.06600
N845        N  0.29420607  0.93828562  0.84542861    -0.58700
N846        N  0.29418696  0.55020743  0.81707734    -0.06200
N847        N  0.30528387  0.58145094  0.82544180    -0.60800
N848        N  0.26459021  0.54313030  0.83263445    -0.05800
N849        N  0.25482576  0.56992297  0.85207862    -0.58700
N850        N  0.31431612  0.97289827  0.80741566    -0.05500
N851        N  0.34182940  0.95309700  0.81622515    -0.61200
C852        C  0.32929376  0.93162631  0.84005819     0.95600
C853        C  0.28074375  0.59325192  0.84723252     0.95400
N854        N  0.29891694  0.56871035  0.71442490    -0.06700
N855        N  0.31057693  0.59606210  0.69805573    -0.59300
N856        N  0.33467261  0.99073730  0.73109920    -0.04900
N857        N  0.36846222  0.98251198  0.72688721    -0.60500
N858        N  0.31815799  0.99296046  0.70141483    -0.06800
N859        N  0.34065314  0.98593769  0.67675306    -0.59500
N860        N  0.31497184  0.56615824  0.74421829    -0.04500
N861        N  0.33701384  0.59183256  0.74903292    -0.60600
Mn862      Mn  0.31472001  0.51945456  0.77526483     1.18400
C863        C  0.33368106  0.61049366  0.72053270     0.97700
C864        C  0.37164176  0.97895127  0.69299520     0.98400
N865        N  0.18422531  0.52573079  0.81120276    -0.06800
N866        N  0.16057210  0.52990948  0.83551044    -0.63100
N867        N  0.18967869  0.95386178  0.76738701    -0.05600
N868        N  0.16911275  0.92728133  0.76140829    -0.63800
N869        N  0.20573443  0.95093641  0.79718506    -0.06300
N870        N  0.19546557  0.92234103  0.81241937    -0.63400
N871        N  0.16829943  0.52862207  0.78124633    -0.05200
N872        N  0.13399983  0.53468019  0.78497560    -0.64100
Mn873      Mn  0.23526532  0.99577515  0.81760720     1.10700
C874        C  0.12958145  0.53599324  0.81881357     0.98900
C875        C  0.17328120  0.90769770  0.78918710     0.99000
N876        N  0.23871920  0.97744645  0.67904971    -0.06300
N877        N  0.24824169  0.95093589  0.65908633    -0.61700
N878        N  0.18974694  0.54831423  0.70529813    -0.05600
N879        N  0.16227059  0.56726737  0.69459572    -0.58400
N880        N  0.21850405  0.55682404  0.68903428    -0.06900
N881        N  0.21082255  0.58195963  0.66700844    -0.61300
N882        N  0.20915624  0.97033020  0.69453171    -0.05900
N883        N  0.19780557  0.93928111  0.68560498    -0.58400
Mn884      Mn  0.26838588  0.52425451  0.69487590     1.20200
Mn885      Mn  0.18905547  0.00091478  0.73681946     1.10100
Cl886      Cl  0.25177006  0.51015082  0.75622224    -0.86400
C887        C  0.22217967  0.92764341  0.66349575     0.95900
C888        C  0.17568206  0.58894325  0.67130364     0.95700
C889        C  0.36032086  0.63460546  0.71215942    -0.13700
C890        C  0.38797434  0.64951045  0.71158749    -0.15300
C891        C  0.14825151  0.88156620  0.79600803    -0.13700
C892        C  0.12148186  0.86523624  0.79493151    -0.15300
C893        C  0.22108159  0.86580657  0.63401170    -0.13700
C894        C  0.22153850  0.89329380  0.64898608    -0.15300
C895        C  0.28131031  0.62762136  0.86124701    -0.13700
C896        C  0.28185216  0.65501265  0.87616900    -0.15300
C897        C  0.12961959  0.70041480  0.89792159    -0.13700
C898        C  0.11746972  0.69600414  0.86989936    -0.15300
C899        C  0.37706399  0.81460147  0.60939608    -0.13700
C900        C  0.39142305  0.81750273  0.63661266    -0.15300
C901        C  0.34266186  0.61680494  0.53563321    -0.13700
C902        C  0.36044278  0.59128944  0.02778554    -0.15300
C903        C  0.13873866  0.92597524  0.48151947    -0.13700
C904        C  0.15795535  0.90138618  0.97416906    -0.15300
C905        C  0.07115721  0.02348062  0.85183196    -0.13700
C906        C  0.09573461  0.53070367  0.83424834    -0.15300
C907        C  0.40479953  0.98218698  0.67620849    -0.13700
C908        C  0.42758248  0.48907139  0.65647191    -0.15300
C909        C  0.02271040  0.83996363  0.60663021    -0.13700
C910        C  0.51402855  0.85579757  0.58150735    -0.15300
C911        C  0.47718743  0.67243191  0.89682848    -0.13700
C912        C  0.98240771  0.65635710  0.92256059    -0.15300
C913        C  0.89856341  0.35805398  0.35122361     0.86000
C914        C  0.91902376  0.38068420  0.37696651    -0.54200
C915        C  0.89846546  0.39956981  0.39901948     0.09000
C916        C  0.85800415  0.39399578  0.39313318     0.19900
C917        C  0.87442315  0.33538584  0.37304659    -0.54900
C918        C  0.85337749  0.35372964  0.39555288     0.09100
C919        C  0.87317107  0.38363727  0.33340727    -0.54400
C920        C  0.85154413  0.40260531  0.35466005     0.09600
H921        H  0.94772716  0.38224772  0.37718159     0.14200
H922        H  0.84100361  0.40958287  0.41070475    -0.00100
H923        H  0.87461969  0.30708578  0.37132706     0.14500
H924        H  0.87294191  0.38722192  0.30606483     0.14300
C925        C  0.60293955  0.10903176  0.10487003     0.86000
C926        C  0.62448943  0.13547419  0.08544674    -0.54200
C927        C  0.64686785  0.15565300  0.10471500     0.09000
C928        C  0.64453802  0.14722230  0.14365377     0.19900
C929        C  0.63059278  0.08780880  0.12516576    -0.54900
C930        C  0.65235966  0.10712283  0.14580424     0.09100
C931        C  0.58313692  0.13063791  0.13159293    -0.54400
C932        C  0.60414499  0.15057204  0.15230120     0.09600
H933        H  0.62271304  0.13736613  0.05797107     0.14200
H934        H  0.66190054  0.16331163  0.16025937    -0.00100
H935        H  0.63175948  0.05947343  0.12448833     0.14500
H936        H  0.55445733  0.13057121  0.13369199     0.14300
N937        N  0.54258150  0.52248310  0.43462644    -0.06600
N938        N  0.56825723  0.52374471  0.41260745    -0.58700
N939        N  0.97839947  0.07596269  0.45783673    -0.06200
N940        N  0.96216557  0.10225406  0.44293173    -0.60800
N941        N  0.50964191  0.08507566  0.46997060    -0.05800
N942        N  0.51544615  0.11795534  0.46206492    -0.58700
N943        N  0.51215603  0.51527294  0.41953535    -0.05500
N944        N  0.51692800  0.51257089  0.38616308    -0.61200
C945        C  0.55233726  0.51729204  0.38271852     0.95600
C946        C  0.48502724  0.12836828  0.44601386     0.95400
N947        N  0.90964347  0.01469133  0.50851668    -0.06700
N948        N  0.88745505  0.03153581  0.02921065    -0.59300
N949        N  0.94379935  0.46852588  0.44161316    -0.04900
N950        N  0.93120498  0.45443673  0.41311774    -0.60500
N951        N  0.93620728  0.44903983  0.46777710    -0.06800
N952        N  0.91799587  0.42147913  0.45739001    -0.59500
N953        N  0.91608289  0.03379018  0.48181404    -0.04500
N954        N  0.89837992  0.06382895  0.48375500    -0.60600
Mn955      Mn  0.96227682  0.02270060  0.44923650     1.18400
C956        C  0.88041962  0.06198384  0.51311058     0.97700
C957        C  0.91503463  0.42516264  0.42318318     0.98400
N958        N  0.55540767  0.06383397  0.03832437    -0.06800
N959        N  0.57455190  0.09075885  0.04824377    -0.63100
N960        N  0.57761003  0.47964362  0.02445341    -0.05600
N961        N  0.59704170  0.45063506  0.02336367    -0.63800
N962        N  0.58411398  0.49908545  0.49817403    -0.06300
N963        N  0.60808777  0.48358792  0.47851564    -0.63400
N964        N  0.54863224  0.04416414  0.06452533    -0.05200
N965        N  0.56278079  0.05757780  0.09267288    -0.64100
Mn966      Mn  0.54824175  0.04342372  0.48546370     1.10700
C967        C  0.57879338  0.08683417  0.08228885     0.98900
C968        C  0.61608447  0.45359513  0.99477623     0.99000
N969        N  0.98358981  0.42751774  0.03582376    -0.06300
N970        N  0.97850593  0.39440760  0.04353588    -0.61700
N971        N  0.98225066  0.99725797  0.08623229    -0.05600
N972        N  0.97909406  0.99999440  0.11969206    -0.58400
N973        N  0.95135770  0.98985126  0.07222230    -0.06900
N974        N  0.92677118  0.98821172  0.09539106    -0.61300
N975        N  0.01508624  0.43681452  0.04717624    -0.05900
N976        N  0.53214563  0.41050699  0.06115734    -0.58400
Mn977      Mn  0.94453214  0.46941048  0.02089006     1.20200
Mn978      Mn  0.53109719  0.48997359  0.05629443     1.10100
Cl979      Cl  0.99643140  0.00620639  0.50284864    -0.86400
C980        C  0.00964460  0.38419669  0.05852408     0.95900
C981        C  0.94413617  0.99485273  0.12461098     0.95700
N982        N  0.80202153  0.32076149  0.46420346    -0.06600
N983        N  0.82739538  0.34154060  0.45373795    -0.58700
N984        N  0.71260017  0.32676330  0.46195560    -0.06200
N985        N  0.68458341  0.34541648  0.45156366    -0.60800
N986        N  0.72780557  0.34240852  0.98789267    -0.05800
N987        N  0.71103087  0.37172948  0.99585235    -0.58700
N988        N  0.78804470  0.30393382  0.43808783    -0.05500
N989        N  0.80428894  0.31227187  0.40965712    -0.61200
C990        C  0.82894689  0.33573199  0.41959905     0.95600
C991        C  0.68427338  0.37344976  0.47314168     0.95400
N992        N  0.68333276  0.22042494  0.46646852    -0.06700
N993        N  0.65886674  0.19986975  0.45341014    -0.59300
N994        N  0.76006283  0.22541944  0.42827625    -0.04900
N995        N  0.77221946  0.21484158  0.39838118    -0.60500
N996        N  0.75729904  0.19855918  0.44854361    -0.06800
N997        N  0.76808007  0.16970521  0.43344558    -0.59500
N998        N  0.68634384  0.24850025  0.44766296    -0.04500
N999        N  0.66354242  0.24734217  0.42209470    -0.60600
Mn1000     Mn  0.73657029  0.27640557  0.44340803     1.18400
C1001       C  0.64653407  0.21722068  0.42612386     0.97700
C1002       C  0.77767075  0.18014847  0.40263036     0.98400
N1003       N  0.74514285  0.32110911  0.06162352    -0.06800
N1004       N  0.73523334  0.35025641  0.07677633    -0.63100
N1005       N  0.81499683  0.27043976  0.06220734    -0.05600
N1006       N  0.83892845  0.27037697  0.08680406    -0.63800
N1007       N  0.81859373  0.29835844  0.04318370    -0.06300
N1008       N  0.84458132  0.31767619  0.05528715    -0.63400
N1009       N  0.74168202  0.29428112  0.08196967    -0.05200
N1010       N  0.73005613  0.30540124  0.11195258    -0.64100
Mn1011     Mn  0.77401971  0.32052443  0.01402721     1.10700
C1012       C  0.72558248  0.34026780  0.10770232     0.98900
C1013       C  0.85721556  0.29958183  0.08203376     0.99000
N1014       N  0.77391551  0.17706892  0.02203164    -0.06300
N1015       N  0.79056847  0.14780449  0.51368624    -0.61700
N1016       N  0.71302311  0.21366727  0.07212423    -0.05600
N1017       N  0.69646346  0.20157159  0.09934466    -0.58400
N1018       N  0.69943350  0.19965927  0.04429113    -0.06900
N1019       N  0.67365694  0.17853607  0.05186622    -0.61300
N1020       N  0.78889982  0.19207496  0.04855989    -0.05900
N1021       N  0.81653081  0.17283151  0.05904481    -0.58400
Mn1022     Mn  0.72813689  0.19934561  0.49561332     1.20200
Mn1023     Mn  0.76472240  0.24244314  0.06718441     1.10100
Cl1024     Cl  0.75079090  0.25972904  0.00516498    -0.86400
C1025       C  0.81686627  0.14518097  0.03691171     0.95900
C1026       C  0.67138129  0.17980853  0.08616786     0.95700
N1027       N  0.94907541  0.27495031  0.19026345    -0.06600
N1028       N  0.92669877  0.27424232  0.16452554    -0.58700
N1029       N  0.02251378  0.31596914  0.19122440    -0.06200
N1030       N  0.52528914  0.34122659  0.16890860    -0.60800
N1031       N  0.02557809  0.28554928  0.17529124    -0.05800
N1032       N  0.53094168  0.28985354  0.14261379    -0.58700
N1033       N  0.94698084  0.30524604  0.20644386    -0.05500
N1034       N  0.92362834  0.32603776  0.19099686    -0.61200
C1035       C  0.91086469  0.30578384  0.16544927     0.95600
C1036       C  0.53103682  0.32450468  0.13890986     0.95400
N1037       N  0.54631983  0.31511580  0.29796336    -0.06700
N1038       N  0.57690941  0.32389811  0.31163488    -0.59300
N1039       N  0.95823765  0.32471869  0.28664047    -0.04900
N1040       N  0.93082921  0.34545214  0.29463135    -0.60500
N1041       N  0.96748191  0.30601190  0.31319789    -0.06800
N1042       N  0.94705556  0.31351474  0.33941202    -0.59500
N1043       N  0.53903286  0.33332507  0.27060026    -0.04500
N1044       N  0.56495652  0.35512515  0.26499488    -0.60600
Mn1045     Mn  0.99154095  0.32103381  0.23910977     1.18400
C1046       C  0.58805010  0.34885365  0.29099175     0.97700
C1047       C  0.92388714  0.33788459  0.32770347     0.98400
N1048       N  0.54384559  0.20762063  0.19245550    -0.06800
N1049       N  0.56402579  0.19990281  0.16617184    -0.63100
N1050       N  0.97167782  0.17959178  0.23433893    -0.05600
N1051       N  0.94548165  0.15822788  0.24031363    -0.63800
N1052       N  0.96439782  0.19782906  0.20700519    -0.06300
N1053       N  0.93349354  0.18942363  0.19369789    -0.63400
N1054       N  0.55253960  0.18815903  0.21864024    -0.05200
N1055       N  0.57895460  0.16639129  0.21002449    -0.64100
Mn1056     Mn  0.99611385  0.24103383  0.19147271     1.10700
C1057       C  0.58661932  0.17472916  0.17729743     0.98900
C1058       C  0.92222043  0.16463458  0.21451225     0.99000
N1059       N  0.48466673  0.22769297  0.32930186    -0.06300
N1060       N  0.97658699  0.22346179  0.36143144    -0.61700
N1061       N  0.56334411  0.20758189  0.29890046    -0.05600
N1062       N  0.58652414  0.18690854  0.31476558    -0.58400
N1063       N  0.56152148  0.23816206  0.31454961    -0.06900
N1064       N  0.58401371  0.23924387  0.34014261    -0.61300
N1065       N  0.48709479  0.19737731  0.31315420    -0.05900
N1066       N  0.98086960  0.17209791  0.33464571    -0.58400
Mn1067     Mn  0.51467292  0.27212755  0.31363980     1.20200
Mn1068     Mn  0.51889027  0.19185859  0.26592549     1.10100
Cl1069     Cl  0.00530910  0.25655945  0.25252207    -0.86400
C1070       C  0.97372889  0.18886590  0.36435249     0.95900
C1071       C  0.59958318  0.20760246  0.33987030     0.95700
N1072       N  0.78592559  0.46434978  0.32445928    -0.06600
N1073       N  0.79411520  0.43835920  0.34551066    -0.58700
N1074       N  0.79429426  0.05029786  0.31701043    -0.06200
N1075       N  0.80540770  0.08153268  0.32538003    -0.60800
N1076       N  0.76471064  0.04321385  0.33259197    -0.05800
N1077       N  0.75498031  0.06999727  0.35206756    -0.58700
N1078       N  0.81417046  0.47295003  0.30745467    -0.05500
N1079       N  0.84169484  0.45315823  0.31623584    -0.61200
C1080       C  0.82919904  0.43170300  0.34009590     0.95600
C1081       C  0.78089893  0.09332549  0.34720291     0.95400
N1082       N  0.79904827  0.06869667  0.21432365    -0.06700
N1083       N  0.81066796  0.09603996  0.19791844    -0.59300
N1084       N  0.83457151  0.49078193  0.23116007    -0.04900
N1085       N  0.86837742  0.48261540  0.22695391    -0.60500
N1086       N  0.81807207  0.49302706  0.20147044    -0.06800
N1087       N  0.84059612  0.48608758  0.17681039    -0.59500
N1088       N  0.81510204  0.06619964  0.24412218    -0.04500
N1089       N  0.83711172  0.09190720  0.24890236    -0.60600
Mn1090     Mn  0.81486547  0.01952670  0.27523065     1.18400
C1091       C  0.83375251  0.11052587  0.22037523     0.97700
C1092       C  0.87158716  0.47912065  0.19305803     0.98400
N1093       N  0.68432847  0.02577944  0.31115318    -0.06800
N1094       N  0.66063499  0.02989752  0.33543418    -0.63100
N1095       N  0.68952385  0.45384019  0.26751892    -0.05600
N1096       N  0.66896837  0.42723042  0.26161257    -0.63800
N1097       N  0.70561196  0.45097077  0.29731065    -0.06300
N1098       N  0.69539566  0.42238908  0.31260034    -0.63400
N1099       N  0.66844021  0.02868961  0.28118215    -0.05200
N1100       N  0.63413028  0.03471247  0.28487436    -0.64100
Mn1101     Mn  0.73513740  0.49583407  0.31768041     1.10700
C1102       C  0.62965860  0.03597038  0.31870618     0.98900
C1103       C  0.67319700  0.40768968  0.28942176     0.99000
N1104       N  0.73865411  0.47744875  0.17915786    -0.06300
N1105       N  0.74827427  0.45093420  0.15924531    -0.61700
N1106       N  0.68991380  0.04830926  0.20523363    -0.05600
N1107       N  0.66242123  0.06724130  0.19453784    -0.58400
N1108       N  0.71865052  0.05678874  0.18892006    -0.06900
N1109       N  0.71093052  0.08188736  0.16685859    -0.61300
N1110       N  0.70908904  0.47028182  0.19461431    -0.05900
N1111       N  0.69783429  0.43918572  0.18571205    -0.58400
Mn1112     Mn  0.76855372  0.02421893  0.19482502     1.20200
Mn1113     Mn  0.68891402  0.50088641  0.23686828     1.10100
Cl1114     Cl  0.75192688  0.01019028  0.25616575    -0.86400
C1115       C  0.72227586  0.42757749  0.16364878     0.95900
C1116       C  0.67578951  0.08887668  0.17119169     0.95700
C1117       C  0.86034994  0.13466219  0.21196522    -0.13700
C1118       C  0.88797783  0.14960652  0.21139873    -0.15300
C1119       C  0.64824925  0.38149969  0.29631937    -0.13700
C1120       C  0.62151383  0.36511414  0.29530207    -0.15300
C1121       C  0.72129994  0.36579515  0.13402513    -0.13700
C1122       C  0.72171470  0.39324122  0.14908386    -0.15300
C1123       C  0.78153223  0.12767297  0.36126362    -0.13700
C1124       C  0.78215595  0.15505221  0.37620127    -0.15300
C1125       C  0.62979214  0.20051219  0.39775040    -0.13700
C1126       C  0.61761463  0.19608747  0.36974424    -0.15300
C1127       C  0.87703588  0.31470069  0.10933185    -0.13700
C1128       C  0.89150386  0.31770728  0.13648584    -0.15300
C1129       C  0.84240839  0.11652362  0.03568788    -0.13700
C1130       C  0.86032631  0.09114046  0.52747952    -0.15300
C1131       C  0.63861078  0.42582148  0.98147514    -0.13700
C1132       C  0.65798768  0.40131509  0.47425870    -0.15300
C1133       C  0.57112768  0.52343279  0.35197235    -0.13700
C1134       C  0.59578724  0.03061639  0.33408617    -0.15300
C1135       C  0.90476221  0.48238632  0.17628949    -0.13700
C1136       C  0.92762803  0.98873693  0.15638354    -0.15300
C1137       C  0.52291397  0.34002073  0.10664150    -0.13700
C1138       C  0.01423216  0.35584056  0.08147575    -0.15300
C1139       C  0.97701603  0.17243939  0.39676143    -0.13700
C1140       C  0.48229705  0.15624658  0.42238873    -0.15300
C1141       C  0.89855517  0.35804024  0.85121481     0.86000
C1142       C  0.91897803  0.38066643  0.87699544    -0.54200
C1143       C  0.89839167  0.39955259  0.89902810     0.09000
C1144       C  0.85793155  0.39395957  0.89308673     0.19900
C1145       C  0.87438094  0.33535757  0.87299325    -0.54900
C1146       C  0.85328981  0.35368207  0.89547592     0.09100
C1147       C  0.87318821  0.38363275  0.83337760    -0.54400
C1148       C  0.85152899  0.40258934  0.85460947     0.09600
H1149       H  0.94768029  0.38224413  0.87723500     0.14200
H1150       H  0.84090143  0.40953806  0.91063866    -0.00100
H1151       H  0.87458804  0.30705782  0.87126052     0.14500
H1152       H  0.87299754  0.38723028  0.80603712     0.14300
C1153       C  0.60292076  0.10902511  0.60479911     0.86000
C1154       C  0.62452224  0.13544585  0.58537788    -0.54200
C1155       C  0.64691778  0.15561000  0.60465622     0.09000
C1156       C  0.64455795  0.14717273  0.64359471     0.19900
C1157       C  0.63053781  0.08777534  0.62511016    -0.54900
C1158       C  0.65231949  0.10706518  0.64575375     0.09100
C1159       C  0.58313970  0.13066191  0.63151439    -0.54400
C1160       C  0.60416801  0.15056699  0.65223157     0.09600
H1161       H  0.62275599  0.13734171  0.55790222     0.14200
H1162       H  0.66193316  0.16323749  0.66021124    -0.00100
H1163       H  0.63166690  0.05943869  0.62444150     0.14500
H1164       H  0.55445939  0.13062527  0.63361205     0.14300
N1165       N  0.54247131  0.52252467  0.93456103    -0.06600
N1166       N  0.56814062  0.52381886  0.91253936    -0.58700
N1167       N  0.97835122  0.07603983  0.95792932    -0.06200
N1168       N  0.96212339  0.10232968  0.94301624    -0.60800
N1169       N  0.50962808  0.08510242  0.97006487    -0.05800
N1170       N  0.51546476  0.11796570  0.96212079    -0.58700
N1171       N  0.51204147  0.51532368  0.91947039    -0.05500
N1172       N  0.51681015  0.51266015  0.88609171    -0.61200
C1173       C  0.55222089  0.51739572  0.88264766     0.95600
C1174       C  0.48506091  0.12839221  0.94605256     0.95400
N1175       N  0.90960431  0.01469671  0.00856432    -0.06700
N1176       N  0.88748025  0.03156653  0.52911902    -0.59300
N1177       N  0.94375353  0.46856079  0.94157639    -0.04900
N1178       N  0.93112772  0.45445898  0.91309502    -0.60500
N1179       N  0.93616527  0.44909084  0.96775396    -0.06800
N1180       N  0.91792942  0.42153392  0.95739000    -0.59500
N1181       N  0.91601665  0.03383622  0.98188270    -0.04500
N1182       N  0.89830658  0.06387026  0.98388571    -0.60600
Mn1183     Mn  0.96222681  0.02279161  0.94926821     1.18400
C1184       C  0.88037053  0.06197804  0.01325447     0.97700
C1185       C  0.91494137  0.42519502  0.92318073     0.98400
N1186       N  0.55535010  0.06379886  0.53827983    -0.06800
N1187       N  0.57447779  0.09073934  0.54819202    -0.63100
N1188       N  0.57763464  0.47961494  0.52451093    -0.05600
N1189       N  0.59703885  0.45058976  0.52340387    -0.63800
N1190       N  0.58405244  0.49909261  0.99809109    -0.06300
N1191       N  0.60802249  0.48359352  0.97842945    -0.63400
N1192       N  0.54859681  0.04412061  0.56448844    -0.05200
N1193       N  0.56274972  0.05755444  0.59262723    -0.64100
Mn1194     Mn  0.54824744  0.04344606  0.98552489     1.10700
C1195       C  0.57874063  0.08682476  0.58223485     0.98900
C1196       C  0.61610728  0.45356457  0.49483522     0.99000
N1197       N  0.98362687  0.42742364  0.53583525    -0.06300
N1198       N  0.97858769  0.39430239  0.54354208    -0.61700
N1199       N  0.98217553  0.99721515  0.58625579    -0.05600
N1200       N  0.97899084  0.00003887  0.61970536    -0.58400
N1201       N  0.95128070  0.98985483  0.57223307    -0.06900
N1202       N  0.92665826  0.98833958  0.59537948    -0.61300
N1203       N  0.01512876  0.43673685  0.54715557    -0.05900
N1204       N  0.53214875  0.41048171  0.56112639    -0.58400
Mn1205     Mn  0.94454097  0.46932690  0.52092061     1.20200
Mn1206     Mn  0.53110996  0.48994352  0.55632817     1.10100
Cl1207     Cl  0.99642249  0.00624817  0.00282515    -0.86400
C1208       C  0.00975949  0.38410851  0.55848698     0.95900
C1209       C  0.94401185  0.99500720  0.62460218     0.95700
N1210       N  0.80191633  0.32065500  0.96410829    -0.06600
N1211       N  0.82729567  0.34142819  0.95364353    -0.58700
N1212       N  0.71248056  0.32671009  0.96191399    -0.06200
N1213       N  0.68448470  0.34539868  0.95152668    -0.60800
N1214       N  0.72786880  0.34244817  0.48797191    -0.05800
N1215       N  0.71102727  0.37172455  0.49596047    -0.58700
N1216       N  0.78790800  0.30385489  0.93798785    -0.05500
N1217       N  0.80414507  0.31221558  0.90955203    -0.61200
C1218       C  0.82882935  0.33565861  0.91949993     0.95600
C1219       C  0.68425229  0.37346797  0.97306261     0.95400
N1220       N  0.68320861  0.22029009  0.96647397    -0.06700
N1221       N  0.65873966  0.19972870  0.95342340    -0.59300
N1222       N  0.75987016  0.22530596  0.92825827    -0.04900
N1223       N  0.77201254  0.21470362  0.89836647    -0.60500
N1224       N  0.75716652  0.19846663  0.94856275    -0.06800
N1225       N  0.76797528  0.16960720  0.93349803    -0.59500
N1226       N  0.68616469  0.24839694  0.94770065    -0.04500
N1227       N  0.66330461  0.24726193  0.92217871    -0.60600
Mn1228     Mn  0.73640358  0.27631741  0.94337235     1.18400
C1229       C  0.64632945  0.21711731  0.92618771     0.97700
C1230       C  0.77752115  0.18002540  0.90266397     0.98400
N1231       N  0.74520956  0.32111805  0.56167088    -0.06800
N1232       N  0.73518722  0.35025344  0.57677209    -0.63100
N1233       N  0.81510852  0.27046721  0.56221720    -0.05600
N1234       N  0.83908574  0.27036365  0.58677174    -0.63800
N1235       N  0.81867886  0.29841366  0.54322744    -0.06300
N1236       N  0.84468653  0.31771335  0.55531431    -0.63400
N1237       N  0.74177726  0.29429583  0.58202874    -0.05200
N1238       N  0.73006208  0.30541793  0.61198214    -0.64100
Mn1239     Mn  0.77410012  0.32058737  0.51409993     1.10700
C1240       C  0.72550133  0.34027441  0.60768608     0.98900
C1241       C  0.85736680  0.29957520  0.58201200     0.99000
N1242       N  0.77399433  0.17712338  0.52198207    -0.06300
N1243       N  0.79049029  0.14773043  0.01379841    -0.61700
N1244       N  0.71312143  0.21365590  0.57213394    -0.05600
N1245       N  0.69656050  0.20151648  0.59933811    -0.58400
N1246       N  0.69950705  0.19970970  0.54428091    -0.06900
N1247       N  0.67370872  0.17859511  0.55182952    -0.61300
N1248       N  0.78900812  0.19210327  0.54850884    -0.05900
N1249       N  0.81666262  0.17285662  0.55893065    -0.58400
Mn1250     Mn  0.72804130  0.19925873  0.99563063     1.20200
Mn1251     Mn  0.76483406  0.24245414  0.56720580     1.10100
Cl1252     Cl  0.75090636  0.25979074  0.50519994    -0.86400
C1253       C  0.81697643  0.14523670  0.53676055     0.95900
C1254       C  0.67144759  0.17979587  0.58613514     0.95700
N1255       N  0.94905014  0.27482774  0.69031437    -0.06600
N1256       N  0.92666494  0.27412003  0.66458342    -0.58700
N1257       N  0.02250670  0.31587201  0.69120136    -0.06200
N1258       N  0.52525854  0.34115716  0.66885891    -0.60800
N1259       N  0.02553900  0.28545127  0.67526576    -0.05800
N1260       N  0.53089901  0.28979588  0.64253552    -0.58700
N1261       N  0.94696691  0.30512858  0.70648531    -0.05500
N1262       N  0.92361662  0.32592050  0.69104298    -0.61200
C1263       C  0.91084187  0.30566799  0.66550495     0.95600
C1264       C  0.53101158  0.32445105  0.63885468     0.95400
N1265       N  0.54635383  0.31509845  0.79782788    -0.06700
N1266       N  0.57693121  0.32392133  0.81148863    -0.59300
N1267       N  0.95823454  0.32467789  0.78663170    -0.04900
N1268       N  0.93082155  0.34540841  0.79461858    -0.60500
N1269       N  0.96750245  0.30600132  0.81320183    -0.06800
N1270       N  0.94709235  0.31352694  0.83942378    -0.59500
N1271       N  0.53903078  0.33329163  0.77046577    -0.04500
N1272       N  0.56492323  0.35512256  0.76484162    -0.60600
Mn1273     Mn  0.99153175  0.32096654  0.73909294     1.18400
C1274       C  0.58803092  0.34888186  0.79083585     0.97700
C1275       C  0.92390763  0.33787921  0.82770649     0.98400
N1276       N  0.54385876  0.20756773  0.69240596    -0.06800
N1277       N  0.56406005  0.19988378  0.66613006    -0.63100
N1278       N  0.97172127  0.17951657  0.73443469    -0.05600
N1279       N  0.94549350  0.15822025  0.74050959    -0.63800
N1280       N  0.96440332  0.19773835  0.70710034    -0.06300
N1281       N  0.93343843  0.18939068  0.69389301    -0.63400
N1282       N  0.55255863  0.18809929  0.71858394    -0.05200
N1283       N  0.57899214  0.16635323  0.70996716    -0.64100
Mn1284     Mn  0.99610049  0.24093065  0.69149331     1.10700
C1285       C  0.58666327  0.17471534  0.67724684     0.98900
C1286       C  0.92216869  0.16465346  0.71476650     0.99000
N1287       N  0.48480517  0.22768381  0.82928021    -0.06300
N1288       N  0.97663553  0.22348839  0.86143938    -0.61700
N1289       N  0.56341491  0.20755576  0.79880439    -0.05600
N1290       N  0.58655301  0.18687249  0.81470977    -0.58400
N1291       N  0.56164463  0.23816675  0.81439988    -0.06900
N1292       N  0.58415254  0.23925870  0.83998079    -0.61300
N1293       N  0.48718128  0.19736434  0.81313471    -0.05900
N1294       N  0.98093769  0.17210834  0.83468318    -0.58400
Mn1295     Mn  0.51476704  0.27211046  0.81355518     1.20200
Mn1296     Mn  0.51893614  0.19181169  0.76588362     1.10100
Cl1297     Cl  0.00533911  0.25651254  0.75252440    -0.86400
C1298       C  0.97377515  0.18889400  0.86437551     0.95900
C1299       C  0.59965849  0.20758646  0.83977423     0.95700
N1300       N  0.78592728  0.46436495  0.82442944    -0.06600
N1301       N  0.79411463  0.43836854  0.84547415    -0.58700
N1302       N  0.79426987  0.05017866  0.81708107    -0.06200
N1303       N  0.80542031  0.08137981  0.82551891    -0.60800
N1304       N  0.76467990  0.04309415  0.83264633    -0.05800
N1305       N  0.75497374  0.06984009  0.85217597    -0.58700
N1306       N  0.81416473  0.47294710  0.80740656    -0.05500
N1307       N  0.84168192  0.45313268  0.81616312    -0.61200
C1308       C  0.82918797  0.43168429  0.84003128     0.95600
C1309       C  0.78092280  0.09314487  0.84736622     0.95400
N1310       N  0.79900090  0.06870565  0.71440482    -0.06700
N1311       N  0.81061162  0.09610173  0.69806967    -0.59300
N1312       N  0.83452466  0.49075468  0.73111624    -0.04900
N1313       N  0.86833177  0.48258675  0.72693373    -0.60500
N1314       N  0.81804559  0.49302006  0.70141580    -0.06800
N1315       N  0.84059700  0.48611132  0.67677006    -0.59500
N1316       N  0.81503707  0.06616335  0.74420919    -0.04500
N1317       N  0.83701271  0.09188527  0.74906602    -0.60600
Mn1318     Mn  0.81480539  0.01945804  0.77525807     1.18400
C1319       C  0.83366200  0.11056586  0.72058047     0.97700
C1320       C  0.87157215  0.47912551  0.69304174     0.98400
N1321       N  0.68430535  0.02574515  0.81115700    -0.06800
N1322       N  0.66064416  0.02998826  0.83545136    -0.63100
N1323       N  0.68951459  0.45390240  0.76751090    -0.05600
N1324       N  0.66892620  0.42732171  0.76160528    -0.63800
N1325       N  0.70559868  0.45101804  0.79730358    -0.06300
N1326       N  0.69534392  0.42245257  0.81259700    -0.63400
N1327       N  0.66840020  0.02862955  0.78119040    -0.05200
N1328       N  0.63410764  0.03474895  0.78489826    -0.64100
Mn1329     Mn  0.73514696  0.49586373  0.81766520     1.10700
C1330       C  0.62966844  0.03610685  0.81873413     0.98900
C1331       C  0.67312940  0.40778261  0.78941400     0.99000
N1332       N  0.73855838  0.47748609  0.67907902    -0.06300
N1333       N  0.74807167  0.45101022  0.65906991    -0.61700
N1334       N  0.68983840  0.04826221  0.70522197    -0.05600
N1335       N  0.66233531  0.06715216  0.69448083    -0.58400
N1336       N  0.71858670  0.05677723  0.68894711    -0.06900
N1337       N  0.71086985  0.08186063  0.66687197    -0.61300
N1338       N  0.70901163  0.47033675  0.69457484    -0.05900
N1339       N  0.69766758  0.43929081  0.68561219    -0.58400
Mn1340     Mn  0.76848414  0.02422745  0.69484350     1.20200
Mn1341     Mn  0.68890577  0.50093747  0.73686564     1.10100
Cl1342     Cl  0.75186408  0.01014940  0.75619781    -0.86400
C1343       C  0.72202814  0.42769508  0.66346105     0.95900
C1344       C  0.67571604  0.08880220  0.67115306     0.95700
C1345       C  0.86025486  0.13474493  0.71225915    -0.13700
C1346       C  0.88789476  0.14967479  0.71172957    -0.15300
C1347       C  0.64817446  0.38159928  0.79627756    -0.13700
C1348       C  0.62145121  0.36520397  0.79517886    -0.15300
C1349       C  0.72107809  0.36584345  0.63395173    -0.13700
C1350       C  0.72143687  0.39334309  0.64892364    -0.15300
C1351       C  0.78152351  0.12749309  0.86140302    -0.13700
C1352       C  0.78207968  0.15490065  0.87628381    -0.15300
C1353       C  0.62960620  0.20043170  0.89778696    -0.13700
C1354       C  0.61753276  0.19605513  0.86973055    -0.15300
C1355       C  0.87717323  0.31467248  0.60932201    -0.13700
C1356       C  0.89157384  0.31763102  0.63650906    -0.15300
C1357       C  0.84250198  0.11657377  0.53548999    -0.13700
C1358       C  0.86025718  0.09110427  0.02767281    -0.15300
C1359       C  0.63861337  0.42578445  0.48152110    -0.13700
C1360       C  0.65798649  0.40135374  0.97420503    -0.15300
C1361       C  0.57104786  0.52349683  0.85190971    -0.13700
C1362       C  0.59579133  0.03088354  0.83415343    -0.15300
C1363       C  0.90477056  0.48236614  0.67631514    -0.13700
C1364       C  0.92749982  0.98888713  0.65636516    -0.15300
C1365       C  0.52290121  0.33999386  0.60660005    -0.13700
C1366       C  0.01440092  0.35576735  0.58145585    -0.15300
C1367       C  0.97702324  0.17248262  0.89679428    -0.13700
C1368       C  0.48236988  0.15624916  0.92239354    -0.15300
C1369       C  0.89854050  0.85796014  0.35121406     0.86000
C1370       C  0.91896518  0.88055450  0.37700730    -0.54200
C1371       C  0.89837568  0.89946184  0.39901049     0.09000
C1372       C  0.85792245  0.89392804  0.39304609     0.19900
C1373       C  0.87432261  0.83530518  0.37297298    -0.54900
C1374       C  0.85324193  0.85366355  0.39544098     0.09100
C1375       C  0.87322076  0.88358611  0.33335437    -0.54400
C1376       C  0.85156848  0.90256751  0.35456969     0.09600
H1377       H  0.94767045  0.88210454  0.37727305     0.14200
H1378       H  0.84090120  0.90952937  0.41058776    -0.00100
H1379       H  0.87450774  0.80700540  0.37125450     0.14500
H1380       H  0.87306251  0.88719324  0.30601569     0.14300
C1381       C  0.60301611  0.60912741  0.10489469     0.86000
C1382       C  0.62461180  0.63555289  0.08548567    -0.54200
C1383       C  0.64697694  0.65573890  0.10477401     0.09000
C1384       C  0.64458254  0.64731513  0.14371858     0.19900
C1385       C  0.63062105  0.58790237  0.12523582    -0.54900
C1386       C  0.65235350  0.60720418  0.14591170     0.09100
C1387       C  0.58318907  0.63075874  0.13157696    -0.54400
C1388       C  0.60417903  0.65069352  0.15229892     0.09600
H1389       H  0.62286177  0.63743487  0.05800819     0.14200
H1390       H  0.66192613  0.66339876  0.16034877    -0.00100
H1391       H  0.63176833  0.55956624  0.12457116     0.14500
H1392       H  0.55450670  0.63069574  0.13364961     0.14300
N1393       N  0.54250342  0.02249012  0.43439459    -0.06600
N1394       N  0.56818981  0.02373901  0.41238577    -0.58700
N1395       N  0.97846973  0.57602180  0.45805836    -0.06200
N1396       N  0.96228036  0.60231009  0.44310238    -0.60800
N1397       N  0.50976222  0.58509927  0.47017882    -0.05800
N1398       N  0.51562151  0.61795813  0.46223014    -0.58700
N1399       N  0.51209243  0.01522163  0.41930577    -0.05500
N1400       N  0.51688859  0.01246227  0.38593431    -0.61200
C1401       C  0.55230117  0.01721433  0.38249852     0.95600
C1402       C  0.48522747  0.62839790  0.44615129     0.95400
N1403       N  0.90969938  0.51474376  0.50871437    -0.06700
N1404       N  0.88761382  0.53170428  0.02934140    -0.59300
N1405       N  0.94375773  0.96844041  0.44149421    -0.04900
N1406       N  0.93112896  0.95433158  0.41302371    -0.60500
N1407       N  0.93614258  0.94899498  0.46768252    -0.06800
N1408       N  0.91788959  0.92144815  0.45733983    -0.59500
N1409       N  0.91612431  0.53385135  0.48201327    -0.04500
N1410       N  0.89845326  0.56390640  0.48398119    -0.60600
Mn1411     Mn  0.96231082  0.52277095  0.44942963     1.18400
C1412       C  0.88052451  0.56207334  0.51335329     0.97700
C1413       C  0.91491939  0.92509536  0.42313435     0.98400
N1414       N  0.55546643  0.56386437  0.03839701    -0.06800
N1415       N  0.57461742  0.59079864  0.04828481    -0.63100
N1416       N  0.57757825  0.97964228  0.02431408    -0.05600
N1417       N  0.59699297  0.95062696  0.02320464    -0.63800
N1418       N  0.58401404  0.99910761  0.49796782    -0.06300
N1419       N  0.60807499  0.98369384  0.47835115    -0.63400
N1420       N  0.54870018  0.54421331  0.06461450    -0.05200
N1421       N  0.56286839  0.55765034  0.09274363    -0.64100
Mn1422     Mn  0.54833976  0.54342197  0.48567752     1.10700
C1423       C  0.57887580  0.58690215  0.08232996     0.98900
C1424       C  0.61603921  0.95359836  0.99462496     0.99000
N1425       N  0.98352139  0.92745267  0.03569134    -0.06300
N1426       N  0.97841478  0.89436612  0.04347818    -0.61700
N1427       N  0.98231066  0.49737611  0.08636413    -0.05600
N1428       N  0.97910937  0.50021895  0.11981457    -0.58400
N1429       N  0.95142797  0.48995926  0.07233834    -0.06900
N1430       N  0.92680715  0.48841870  0.09548236    -0.61300
N1431       N  0.01503064  0.93674934  0.04700502    -0.05900
N1432       N  0.53217476  0.91049285  0.06104164    -0.58400
Mn1433     Mn  0.94447037  0.96933887  0.02076729     1.20200
Mn1434     Mn  0.53108113  0.98993442  0.05617646     1.10100
Cl1435     Cl  0.99650224  0.50622151  0.50299587    -0.86400
C1436       C  0.00955552  0.88416319  0.05846605     0.95900
C1437       C  0.94413496  0.49512977  0.12470655     0.95700
N1438       N  0.80190244  0.82071867  0.46411724    -0.06600
N1439       N  0.82728851  0.84147122  0.45363184    -0.58700
N1440       N  0.71248156  0.82676452  0.46197051    -0.06200
N1441       N  0.68452423  0.84548720  0.45155202    -0.60800
N1442       N  0.72781739  0.84245660  0.98796919    -0.05800
N1443       N  0.71098950  0.87175016  0.99592957    -0.58700
N1444       N  0.78786680  0.80392105  0.43801039    -0.05500
N1445       N  0.80408408  0.81226195  0.40956234    -0.61200
C1446       C  0.82878798  0.83568693  0.41948826     0.95600
C1447       C  0.68431630  0.87356245  0.47307721     0.95400
N1448       N  0.68319679  0.72034085  0.46651301    -0.06700
N1449       N  0.65877438  0.69973567  0.45344321    -0.59300
N1450       N  0.75986045  0.72538746  0.42826616    -0.04900
N1451       N  0.77197350  0.71480151  0.39835807    -0.60500
N1452       N  0.75714803  0.69853566  0.44855332    -0.06800
N1453       N  0.76791649  0.66967931  0.43345372    -0.59500
N1454       N  0.68615778  0.74842769  0.44770941    -0.04500
N1455       N  0.66335963  0.74722182  0.42213766    -0.60600
Mn1456     Mn  0.73638690  0.77637895  0.44340443     1.18400
C1457       C  0.64640758  0.71706556  0.42615483     0.97700
C1458       C  0.77745067  0.68011453  0.40261940     0.98400
N1459       N  0.74524843  0.82118367  0.06167664    -0.06800
N1460       N  0.73521832  0.85031060  0.07679044    -0.63100
N1461       N  0.81515508  0.77051531  0.06216140    -0.05600
N1462       N  0.83916895  0.77037391  0.08668126    -0.63800
N1463       N  0.81871380  0.79846880  0.04318261    -0.06300
N1464       N  0.84474535  0.81774858  0.05525747    -0.63400
N1465       N  0.74182202  0.79435607  0.08202537    -0.05200
N1466       N  0.73009704  0.80545527  0.11197916    -0.64100
Mn1467     Mn  0.77409337  0.82062674  0.01407734     1.10700
C1468       C  0.72552600  0.84030852  0.10769809     0.98900
C1469       C  0.85745659  0.79958118  0.08192870     0.99000
N1470       N  0.77408001  0.67719949  0.02202620    -0.06300
N1471       N  0.79059126  0.64784604  0.51373989    -0.61700
N1472       N  0.71317712  0.71375097  0.07218910    -0.05600
N1473       N  0.69660701  0.70166321  0.09941205    -0.58400
N1474       N  0.69957421  0.69975576  0.04435467    -0.06900
N1475       N  0.67377464  0.67865875  0.05193355    -0.61300
N1476       N  0.78905932  0.69221378  0.04855225    -0.05900
N1477       N  0.81672503  0.67301309  0.05901696    -0.58400
Mn1478     Mn  0.72805560  0.69932918  0.49565453     1.20200
Mn1479     Mn  0.76487694  0.74253776  0.06720893     1.10100
Cl1480     Cl  0.75089307  0.75982061  0.00519815    -0.86400
C1481       C  0.81708833  0.64537475  0.03687684     0.95900
C1482       C  0.67150127  0.67991746  0.08623687     0.95700
N1483       N  0.94895577  0.77480461  0.19036394    -0.06600
N1484       N  0.92656984  0.77408981  0.16463395    -0.58700
N1485       N  0.02237452  0.81592541  0.19121099    -0.06200
N1486       N  0.52507994  0.84123042  0.16894384    -0.60800
N1487       N  0.02542775  0.78551421  0.17526379    -0.05800
N1488       N  0.53076425  0.78987635  0.14260670    -0.58700
N1489       N  0.94686697  0.80510489  0.20653757    -0.05500
N1490       N  0.92351123  0.82588866  0.19108918    -0.61200
C1491       C  0.91073862  0.80563307  0.16554894     0.95600
C1492       C  0.53087397  0.82453479  0.13894225     0.95400
N1493       N  0.54639828  0.81513080  0.29778245    -0.06700
N1494       N  0.57703181  0.82396192  0.31132512    -0.59300
N1495       N  0.95824831  0.82464822  0.28666818    -0.04900
N1496       N  0.93080197  0.84533196  0.29464428    -0.60500
N1497       N  0.96756034  0.80599931  0.31324232    -0.06800
N1498       N  0.94713929  0.81349937  0.33946363    -0.59500
N1499       N  0.53894663  0.83335735  0.27046784    -0.04500
N1500       N  0.56479154  0.85522223  0.26476791    -0.60600
Mn1501     Mn  0.99147105  0.82096684  0.23911418     1.18400
C1502       C  0.58802033  0.84896855  0.29065974     0.97700
C1503       C  0.92390794  0.83780501  0.32773159     0.98400
N1504       N  0.54377899  0.70762065  0.19243715    -0.06800
N1505       N  0.56399069  0.69996096  0.16616227    -0.63100
N1506       N  0.97169223  0.67950238  0.23441849    -0.05600
N1507       N  0.94547799  0.65818437  0.24048336    -0.63800
N1508       N  0.96437088  0.69771136  0.20707637    -0.06300
N1509       N  0.93341709  0.68933214  0.19385673    -0.63400
N1510       N  0.55250098  0.68815716  0.21861277    -0.05200
N1511       N  0.57896660  0.66645134  0.21000519    -0.64100
Mn1512     Mn  0.99603360  0.74095194  0.19149838     1.10700
C1513       C  0.58662829  0.67482381  0.17728967     0.98900
C1514       C  0.92215518  0.66458742  0.21472984     0.99000
N1515       N  0.48488663  0.72768009  0.32936620    -0.06300
N1516       N  0.97673867  0.72346880  0.36148406    -0.61700
N1517       N  0.56344078  0.70753001  0.29881373    -0.05600
N1518       N  0.58656011  0.68681472  0.31470803    -0.58400
N1519       N  0.56171711  0.73814425  0.31440915    -0.06900
N1520       N  0.58423740  0.73919889  0.33998462    -0.61300
N1521       N  0.48722902  0.69736181  0.31321226    -0.05900
N1522       N  0.98101451  0.67209314  0.33471846    -0.58400
Mn1523     Mn  0.51483737  0.77211909  0.31360652     1.20200
Mn1524     Mn  0.51892039  0.69182072  0.26592654     1.10100
Cl1525     Cl  0.00531001  0.75651575  0.25252813    -0.86400
C1526       C  0.97390179  0.68887119  0.36442632     0.95900
C1527       C  0.59970480  0.70750658  0.33977038     0.95700
N1528       N  0.78604779  0.96439843  0.32437022    -0.06600
N1529       N  0.79419831  0.93837374  0.34539048    -0.58700
N1530       N  0.79415402  0.55021793  0.31711352    -0.06200
N1531       N  0.80526722  0.58145164  0.32548078    -0.60800
N1532       N  0.76455350  0.54315142  0.33266773    -0.05800
N1533       N  0.75480411  0.56994401  0.35211934    -0.58700
N1534       N  0.81431406  0.97300732  0.30740128    -0.05500
N1535       N  0.84181715  0.95317805  0.31617535    -0.61200
C1536       C  0.82927810  0.93169656  0.33999506     0.95600
C1537       C  0.78073588  0.59325943  0.34727177     0.95400
N1538       N  0.79889233  0.56873647  0.21448757    -0.06700
N1539       N  0.81050335  0.59613401  0.19815346    -0.59300
N1540       N  0.83469570  0.99077407  0.23110482    -0.04900
N1541       N  0.86848251  0.98252258  0.22691098    -0.60500
N1542       N  0.81818861  0.99297244  0.20141545    -0.06800
N1543       N  0.84068769  0.98590933  0.17676600    -0.59500
N1544       N  0.81493078  0.56619302  0.24428818    -0.04500
N1545       N  0.83690446  0.59191723  0.24914719    -0.60600
Mn1546     Mn  0.81471001  0.51947914  0.27531974     1.18400
C1547       C  0.83355725  0.61060105  0.22066229     0.97700
C1548       C  0.87166868  0.97891832  0.19302275     0.98400
N1549       N  0.68419181  0.52573495  0.31120399    -0.06800
N1550       N  0.66053931  0.52997743  0.33550285    -0.63100
N1551       N  0.68966989  0.95395853  0.26738291    -0.05600
N1552       N  0.66910803  0.92738072  0.26138020    -0.63800
N1553       N  0.70572012  0.95102209  0.29718221    -0.06300
N1554       N  0.69544832  0.92241231  0.31239407    -0.63400
N1555       N  0.66826965  0.52858271  0.28124173    -0.05200
N1556       N  0.63397292  0.53467112  0.28495710    -0.64100
Mn1557     Mn  0.73526549  0.99588288  0.31759623     1.10700
C1558       C  0.62955334  0.53605274  0.31879440     0.98900
C1559       C  0.67326871  0.90777868  0.28914528     0.99000
N1560       N  0.73874233  0.97746617  0.17906560    -0.06300
N1561       N  0.74826141  0.95094566  0.15911467    -0.61700
N1562       N  0.68974098  0.54823899  0.20530055    -0.05600
N1563       N  0.66227378  0.56721406  0.19460516    -0.58400
N1564       N  0.71850834  0.55676934  0.18906528    -0.06900
N1565       N  0.71084388  0.58193660  0.16706723    -0.61300
N1566       N  0.70917595  0.97036674  0.19454799    -0.05900
N1567       N  0.69782147  0.93931269  0.18563494    -0.58400
Mn1568     Mn  0.76840754  0.52423280  0.19493849     1.20200
Mn1569     Mn  0.68907754  0.00099401  0.23681640     1.10100
Cl1570     Cl  0.75176454  0.51013360  0.25627360    -0.86400
C1571       C  0.72219693  0.92765919  0.16353063     0.95900
C1572       C  0.67570048  0.58892263  0.17134544     0.95700
C1573       C  0.86019021  0.63474112  0.21231785    -0.13700
C1574       C  0.88785568  0.64963325  0.21173446    -0.15300
C1575       C  0.64823777  0.88163003  0.29593281    -0.13700
C1576       C  0.62147221  0.86528598  0.29486291    -0.15300
C1577       C  0.72112681  0.86584392  0.13398845    -0.13700
C1578       C  0.72154347  0.89331684  0.14899499    -0.15300
C1579       C  0.78134337  0.62761910  0.36129183    -0.13700
C1580       C  0.78194123  0.65501087  0.37620324    -0.15300
C1581       C  0.62970471  0.70033630  0.39775998    -0.13700
C1582       C  0.61760490  0.69595305  0.36971174    -0.15300
C1583       C  0.87722690  0.81466856  0.10927417    -0.13700
C1584       C  0.89154615  0.81760806  0.13650629    -0.15300
C1585       C  0.84263385  0.61672954  0.03568913    -0.13700
C1586       C  0.86040570  0.59123294  0.52769812    -0.15300
C1587       C  0.63858211  0.92583222  0.98134963    -0.13700
C1588       C  0.65811432  0.90149803  0.47415972    -0.15300
C1589       C  0.57114621  0.02327967  0.35175842    -0.13700
C1590       C  0.59571037  0.53077591  0.33423818    -0.15300
C1591       C  0.90483895  0.98207595  0.17623303    -0.13700
C1592       C  0.92757613  0.48907337  0.15647063    -0.15300
C1593       C  0.52284692  0.84009074  0.10667984    -0.13700
C1594       C  0.01413265  0.85585762  0.08147905    -0.15300
C1595       C  0.97721238  0.67245153  0.39684352    -0.13700
C1596       C  0.48254887  0.65625102  0.42248579    -0.15300
C1597       C  0.89855914  0.85797852  0.85119016     0.86000
C1598       C  0.91901288  0.88063206  0.87691253    -0.54200
C1599       C  0.89844473  0.89953186  0.89894126     0.09000
C1600       C  0.85798793  0.89394854  0.89305984     0.19900
C1601       C  0.87441949  0.83532381  0.87302658    -0.54900
C1602       C  0.85335856  0.85368280  0.89550767     0.09100
C1603       C  0.87317000  0.88354698  0.83334739    -0.54400
C1604       C  0.85154493  0.90253394  0.85458326     0.09600
H1605       H  0.94771588  0.88220590  0.87712804     0.14200
H1606       H  0.84098472  0.90955111  0.91061650    -0.00100
H1607       H  0.87462174  0.80702250  0.87132893     0.14500
H1608       H  0.87295289  0.88712060  0.80600358     0.14300
C1609       C  0.60293865  0.60912455  0.60494962     0.86000
C1610       C  0.62452520  0.63553800  0.58551415    -0.54200
C1611       C  0.64691409  0.65571580  0.60478031     0.09000
C1612       C  0.64455877  0.64730246  0.64372181     0.19900
C1613       C  0.63055294  0.58789291  0.62526907    -0.54900
C1614       C  0.65231371  0.60719573  0.64591376     0.09100
C1615       C  0.58314581  0.63076770  0.63164360    -0.54400
C1616       C  0.60417224  0.65069672  0.65233630     0.09600
H1617       H  0.62275176  0.63742120  0.55803775     0.14200
H1618       H  0.66192528  0.66338256  0.66033244    -0.00100
H1619       H  0.63168824  0.55955633  0.62461416     0.14500
H1620       H  0.55446534  0.63072157  0.63374320     0.14300
N1621       N  0.54248729  0.02256090  0.93445971    -0.06600
N1622       N  0.56816835  0.02389344  0.91245343    -0.58700
N1623       N  0.97845334  0.57608642  0.95803116    -0.06200
N1624       N  0.96223982  0.60238730  0.94311794    -0.60800
N1625       N  0.50967578  0.58510612  0.97014959    -0.05800
N1626       N  0.51553799  0.61796075  0.96219030    -0.58700
N1627       N  0.51207309  0.01532894  0.91935562    -0.05500
N1628       N  0.51686815  0.01268265  0.88597603    -0.61200
C1629       C  0.55227836  0.01746380  0.88255038     0.95600
C1630       C  0.48513302  0.62840959  0.94613905     0.95400
N1631       N  0.90970499  0.51480413  0.00868372    -0.06700
N1632       N  0.88757547  0.53164022  0.52934737    -0.59300
N1633       N  0.94374676  0.96853161  0.94146822    -0.04900
N1634       N  0.93115142  0.95442374  0.91298340    -0.60500
N1635       N  0.93616357  0.94905412  0.96764180    -0.06800
N1636       N  0.91796406  0.92148215  0.95727623    -0.59500
N1637       N  0.91611642  0.53390992  0.98197976    -0.04500
N1638       N  0.89846398  0.56397334  0.98397004    -0.60600
Mn1639     Mn  0.96229589  0.52282412  0.94939129     1.18400
C1640       C  0.88056482  0.56213963  0.01335938     0.97700
C1641       C  0.91499675  0.92514956  0.92307254     0.98400
N1642       N  0.55544955  0.56384244  0.53845650    -0.06800
N1643       N  0.57455095  0.59080118  0.54835721    -0.63100
N1644       N  0.57756109  0.97961852  0.52430184    -0.05600
N1645       N  0.59707939  0.95066795  0.52323590    -0.63800
N1646       N  0.58403309  0.99910847  0.99796781    -0.06300
N1647       N  0.60799820  0.98361293  0.97829575    -0.63400
N1648       N  0.54868695  0.54418167  0.56466732    -0.05200
N1649       N  0.56281256  0.55763502  0.59280795    -0.64100
Mn1650     Mn  0.54827353  0.54343567  0.98561737     1.10700
C1651       C  0.57878751  0.58690781  0.58240214     0.98900
C1652       C  0.61617986  0.95370680  0.49469524     0.99000
N1653       N  0.98341205  0.92736747  0.53574769    -0.06300
N1654       N  0.97828653  0.89427614  0.54351102    -0.61700
N1655       N  0.98232585  0.49725985  0.58639151    -0.05600
N1656       N  0.97914106  0.50010606  0.61984243    -0.58400
N1657       N  0.95143760  0.48984694  0.57237678    -0.06900
N1658       N  0.92682617  0.48830871  0.59553012    -0.61300
N1659       N  0.01493607  0.93663588  0.54703890    -0.05900
N1660       N  0.53208568  0.91035714  0.56101119    -0.58400
Mn1661     Mn  0.94443804  0.96930877  0.52078997     1.20200
Mn1662     Mn  0.53105589  0.98985499  0.55617274     1.10100
Cl1663     Cl  0.99650070  0.50629451  0.00296417    -0.86400
C1664       C  0.00943915  0.88403816  0.55845609     0.95900
C1665       C  0.94416960  0.49502067  0.62474636     0.95700
N1666       N  0.80196799  0.82076390  0.96415936    -0.06600
N1667       N  0.82737384  0.84150329  0.95369109    -0.58700
N1668       N  0.71252332  0.82674549  0.96197972    -0.06200
N1669       N  0.68451242  0.84539694  0.95157651    -0.60800
N1670       N  0.72781331  0.84245585  0.48795149    -0.05800
N1671       N  0.71107294  0.87180105  0.49588844    -0.58700
N1672       N  0.78795387  0.80395709  0.93804701    -0.05500
N1673       N  0.80420296  0.81228230  0.90961193    -0.61200
C1674       C  0.82890417  0.83570451  0.91955126     0.95600
C1675       C  0.68422359  0.87345466  0.97311946     0.95400
N1676       N  0.68329810  0.72034988  0.96651245    -0.06700
N1677       N  0.65886411  0.69974938  0.95345804    -0.59300
N1678       N  0.75993691  0.72542069  0.92824826    -0.04900
N1679       N  0.77195585  0.71484522  0.89830191    -0.60500
N1680       N  0.75723650  0.69855711  0.94852475    -0.06800
N1681       N  0.76792327  0.66969870  0.93337273    -0.59500
N1682       N  0.68625439  0.74843378  0.94770528    -0.04500
N1683       N  0.66344218  0.74723305  0.92214475    -0.60600
Mn1684     Mn  0.73647265  0.77639698  0.94341278     1.18400
C1685       C  0.64648408  0.71708188  0.92617649     0.97700
C1686       C  0.77739603  0.68015037  0.90252336     0.98400
N1687       N  0.74522884  0.82115212  0.56165919    -0.06800
N1688       N  0.73525620  0.85028965  0.57678597    -0.63100
N1689       N  0.81508144  0.77044284  0.56212549    -0.05600
N1690       N  0.83909669  0.77028225  0.58664227    -0.63800
N1691       N  0.81865955  0.79839246  0.54314565    -0.06300
N1692       N  0.84470596  0.81765331  0.55521922    -0.63400
N1693       N  0.74178289  0.79432606  0.58200802    -0.05200
N1694       N  0.73010210  0.80543723  0.61197415    -0.64100
Mn1695     Mn  0.77405654  0.82058189  0.51404991     1.10700
C1696       C  0.72557911  0.84029605  0.60769960     0.98900
C1697       C  0.85740593  0.79947405  0.58188769     0.99000
N1698       N  0.77397232  0.67715107  0.52201130    -0.06300
N1699       N  0.79069578  0.64788836  0.01377507    -0.61700
N1700       N  0.71309215  0.71372229  0.57217963    -0.05600
N1701       N  0.69653932  0.70162413  0.59940606    -0.58400
N1702       N  0.69947325  0.69973680  0.54434809    -0.06900
N1703       N  0.67367848  0.67863631  0.55193086    -0.61300
N1704       N  0.78896612  0.69216056  0.54853065    -0.05900
N1705       N  0.81664420  0.67296207  0.55897210    -0.58400
Mn1706     Mn  0.72816093  0.69935108  0.99565405     1.20200
Mn1707     Mn  0.76479935  0.74249263  0.56718763     1.10100
Cl1708     Cl  0.75080595  0.75979463  0.50518675    -0.86400
C1709       C  0.81700174  0.64532851  0.53682404     0.95900
C1710       C  0.67142662  0.67988628  0.58623476     0.95700
N1711       N  0.94896277  0.77473789  0.69035644    -0.06600
N1712       N  0.92657504  0.77398761  0.66462865    -0.58700
N1713       N  0.02239407  0.81587434  0.69121369    -0.06200
N1714       N  0.52500907  0.84124929  0.66896461    -0.60800
N1715       N  0.02543717  0.78545605  0.67527654    -0.05800
N1716       N  0.53075698  0.78989549  0.64264248    -0.58700
N1717       N  0.94687775  0.80505942  0.70649053    -0.05500
N1718       N  0.92352731  0.82582519  0.69101173    -0.61200
C1719       C  0.91074978  0.80553432  0.66550004     0.95600
C1720       C  0.53078951  0.82455144  0.63896318     0.95400
N1721       N  0.54639076  0.81511621  0.79780437    -0.06700
N1722       N  0.57701890  0.82393646  0.81135954    -0.59300
N1723       N  0.95821508  0.82463159  0.78662391    -0.04900
N1724       N  0.93078878  0.84534018  0.79460560    -0.60500
N1725       N  0.96751174  0.80596945  0.81319353    -0.06800
N1726       N  0.94709549  0.81347755  0.83941388    -0.59500
N1727       N  0.53893665  0.83336756  0.77050642    -0.04500
N1728       N  0.56477425  0.85524734  0.76483362    -0.60600
Mn1729     Mn  0.99145927  0.82093942  0.73909296     1.18400
C1730       C  0.58799802  0.84896833  0.79072336     0.97700
C1731       C  0.92388714  0.83780505  0.82768977     0.98400
N1732       N  0.54384527  0.70765467  0.69247619    -0.06800
N1733       N  0.56405097  0.69999239  0.66620051    -0.63100
N1734       N  0.97171141  0.67945903  0.73445071    -0.05600
N1735       N  0.94551332  0.65811571  0.74049157    -0.63800
N1736       N  0.96439702  0.69766490  0.70710550    -0.06300
N1737       N  0.93346630  0.68926052  0.69385796    -0.63400
N1738       N  0.55256424  0.68818820  0.71864973    -0.05200
N1739       N  0.57902084  0.66647578  0.71004114    -0.64100
Mn1740     Mn  0.99604406  0.74089811  0.69151840     1.10700
C1741       C  0.58667752  0.67484798  0.67732665     0.98900
C1742       C  0.92221173  0.66450415  0.71471742     0.99000
N1743       N  0.48488682  0.72767990  0.82935359    -0.06300
N1744       N  0.97667883  0.72351499  0.86148808    -0.61700
N1745       N  0.56346465  0.70753660  0.79884588    -0.05600
N1746       N  0.58656985  0.68682061  0.81475797    -0.58400
N1747       N  0.56172218  0.73814799  0.81444317    -0.06900
N1748       N  0.58421511  0.73920149  0.84004058    -0.61300
N1749       N  0.48724996  0.69735996  0.81320683    -0.05900
N1750       N  0.98103471  0.67210214  0.83480099    -0.58400
Mn1751     Mn  0.51483902  0.77211061  0.81361266     1.20200
Mn1752     Mn  0.51896758  0.69182617  0.76593997     1.10100
Cl1753     Cl  0.00530560  0.75648011  0.75253580    -0.86400
C1754       C  0.97388450  0.68892078  0.86448095     0.95900
C1755       C  0.59968560  0.70751125  0.83983507     0.95700
N1756       N  0.78599199  0.96431372  0.82436372    -0.06600
N1757       N  0.79415259  0.93830679  0.84540101    -0.58700
N1758       N  0.79417353  0.55023829  0.81706174    -0.06200
N1759       N  0.80527374  0.58148830  0.82539130    -0.60800
N1760       N  0.76457611  0.54318102  0.83262568    -0.05800
N1761       N  0.75481439  0.56999513  0.85204218    -0.58700
N1762       N  0.81425348  0.97292346  0.80738975    -0.05500
N1763       N  0.84176633  0.95311987  0.81618168    -0.61200
C1764       C  0.82923719  0.93164792  0.84001240     0.95600
C1765       C  0.78073442  0.59331444  0.84716734     0.95400
N1766       N  0.79889541  0.56870676  0.71441811    -0.06700
N1767       N  0.81055433  0.59606610  0.69805844    -0.59300
N1768       N  0.83461773  0.99074556  0.73109653    -0.04900
N1769       N  0.86840179  0.98249383  0.72688953    -0.60500
N1770       N  0.81810795  0.99297484  0.70141115    -0.06800
N1771       N  0.84059942  0.98593086  0.67675253    -0.59500
N1772       N  0.81492954  0.56616465  0.74422137    -0.04500
N1773       N  0.83694615  0.59185438  0.74905785    -0.60600
Mn1774     Mn  0.81469823  0.51947064  0.77526831     1.18400
C1775       C  0.83362905  0.61051289  0.72055712     0.97700
C1776       C  0.87158105  0.97892425  0.69299815     0.98400
N1777       N  0.68419785  0.52576030  0.81121444    -0.06800
N1778       N  0.66053241  0.52996137  0.83551015    -0.63100
N1779       N  0.68963993  0.95390029  0.76737763    -0.05600
N1780       N  0.66906740  0.92732312  0.76140831    -0.63800
N1781       N  0.70568444  0.95098677  0.79718388    -0.06300
N1782       N  0.69540265  0.92240403  0.81243043    -0.63400
N1783       N  0.66828357  0.52862839  0.78125026    -0.05200
N1784       N  0.63398360  0.53469737  0.78496074    -0.64100
Mn1785     Mn  0.73523025  0.99581462  0.81760659     1.10700
C1786       C  0.62954870  0.53604025  0.81879543     0.98900
C1787       C  0.67322265  0.90775556  0.78919935     0.99000
N1788       N  0.73868580  0.97748617  0.67903268    -0.06300
N1789       N  0.74821946  0.95098707  0.65906245    -0.61700
N1790       N  0.68973615  0.54827833  0.70530403    -0.05600
N1791       N  0.66226313  0.56724640  0.69461760    -0.58400
N1792       N  0.71849106  0.55678803  0.68903750    -0.06900
N1793       N  0.71081242  0.58193649  0.66702532    -0.61300
N1794       N  0.70912480  0.97035711  0.69450870    -0.05900
N1795       N  0.69778346  0.93930661  0.68556927    -0.58400
Mn1796     Mn  0.76837670  0.52423259  0.69488099     1.20200
Mn1797     Mn  0.68902588  0.00094643  0.73679021     1.10100
Cl1798     Cl  0.75175601  0.51014875  0.75623884    -0.86400
C1799       C  0.72216530  0.92768504  0.66345678     0.95900
C1800       C  0.67567557  0.58892946  0.67133107     0.95700
C1801       C  0.86027982  0.63462149  0.71221020    -0.13700
C1802       C  0.88794221  0.64951318  0.71167098    -0.15300
C1803       C  0.64819372  0.88162984  0.79602576    -0.13700
C1804       C  0.62143285  0.86528990  0.79495673    -0.15300
C1805       C  0.72118516  0.86583655  0.63398273    -0.13700
C1806       C  0.72156922  0.89332889  0.64895394    -0.15300
C1807       C  0.78131580  0.62768862  0.86115429    -0.13700
C1808       C  0.78187440  0.65507232  0.87608125    -0.15300
C1809       C  0.62973792  0.70035944  0.89780274    -0.13700
C1810       C  0.61760191  0.69596735  0.86977057    -0.15300
C1811       C  0.87720703  0.81453434  0.60922477    -0.13700
C1812       C  0.89154683  0.81746937  0.63644735    -0.15300
C1813       C  0.84254754  0.61667384  0.53562627    -0.13700
C1814       C  0.86048131  0.59129548  0.02773623    -0.15300
C1815       C  0.63875472  0.92598110  0.48139964    -0.13700
C1816       C  0.65796784  0.90134751  0.97417155    -0.15300
C1817       C  0.57113491  0.02358884  0.85182614    -0.13700
C1818       C  0.59568431  0.53078939  0.83421757    -0.15300
C1819       C  0.90473629  0.98216029  0.67621308    -0.13700
C1820       C  0.92761414  0.48901226  0.65651717    -0.15300
C1821       C  0.52266499  0.84006646  0.60670570    -0.13700
C1822       C  0.01401621  0.85573484  0.58147041    -0.15300
C1823       C  0.97716203  0.67255787  0.89692741    -0.13700
C1824       C  0.48245276  0.65626051  0.92247257    -0.15300
loop_ 
_geom_bond_atom_site_label_1 
_geom_bond_atom_site_label_2 
_geom_bond_distance 
_geom_bond_site_symmetry_2 
_ccdc_geom_bond_type 
C1            C2   1.536       .  S
C1            C7   1.529       .  S
C1            C5   1.548       .  S
C1          C135   1.531       .  S
C2            H9   1.087       .  S
C2            C3   1.363       .  D
C3            C4   1.561       .  S
C3           C45   1.498       .  S
C4            C8   1.569       .  S
C4            C6   1.562       .  S
C4           H10   1.110       .  S
C5           H11   1.087       .  S
C5            C6   1.375       .  D
C6           C78   1.512       .  S
C7           H12   1.086       .  S
C7            C8   1.369       .  D
C8          C168   1.501       .  S
C13          C14   1.531       .  S
C13          C19   1.524       .  S
C13          C17   1.534       .  S
C13          C55   1.529       .  S
C14          H21   1.085       .  S
C14          C15   1.372       .  D
C15          C16   1.574       .  S
C15         C114   1.522       .  S
C16          C20   1.569       .  S
C16          C18   1.564       .  S
C16          H22   1.110       .  S
C17          H23   1.087       .  S
C17          C18   1.369       .  D
C18         C204   1.497       .  S
C19          H24   1.087       .  S
C19          C20   1.367       .  D
C20         C145   1.494       .  S
N25          N26   1.310       .  A
N25          N31   1.319       .  A
N25        Mn510   2.163       .  S
N26          C33   1.336       .  A
N27          N28   1.311       .  A
N27         N941   1.318       .  A
N27         Mn43   2.164       .  S
N28         C946   1.337       .  A
N29          N30   1.326       .  A
N29         N939   1.318   1_455  A
N29         Mn54   2.227       .  S
N30          C34   1.359   1_455  A
N31          N32   1.330       .  A
N31       Mn1411   2.242   1_455  S
N32          C33   1.362       .  A
C33         C221   1.435       .  S
C34         N940   1.337       .  A
C34         C228   1.428       .  S
N35          N41   1.317       .  A
N35         N264   1.326       .  A
N35        Mn749   2.215   1_545  S
N36         N263   1.326       .  A
N36         C272   1.354       .  A
N37          N38   1.325       .  A
N37          N39   1.318       .  A
N37        Mn499   2.225       .  S
N38          C45   1.355       .  A
N39          N40   1.330       .  A
N39        Mn293   2.242       .  S
N40          C45   1.358       .  A
N41          N42   1.323       .  A
N41         Mn43   2.209       .  S
N42          C44   1.350       .  A
Mn43       N1399   2.243       .  S
Mn43        N493   2.225   1_545  S
Mn43        Cl67   2.539       .  S
C44         N264   1.354       .  A
C44         C218   1.452       .  S
N46          N47   1.324       .  A
N46          N52   1.316       .  A
N46        Mn282   2.225   1_554  S
N47          C55   1.357       .  A
N48          N49   1.321       .  A
N48         N278   1.314   1_554  A
N48         Mn66   2.197       .  S
N49          C56   1.350   1_554  A
N50          N51   1.325       .  A
N50         N276   1.314       .  A
N50        Mn510   2.208       .  S
N51         C284   1.353       .  A
N52          N53   1.326       .  A
N52        Mn522   2.216   1_545  S
N53          C55   1.356       .  A
Mn54        N481   2.164       .  S
Mn54        N274   2.225       .  S
Mn54        N506   2.207   1_545  S
Mn54       Cl979   2.548   1_455  S
C56         N279   1.353       .  A
C56         C219   1.447       .  S
N57          N58   1.328       .  A
N57          N63   1.319       .  A
N57         Mn65   2.239       .  S
N58          C68   1.362       .  A
N59          N60   1.326   1_565  A
N59          N61   1.318       .  A
N59       Mn1434   2.213       .  S
N60          C69   1.355   1_545  A
N61          N62   1.312       .  A
N61        Mn521   2.176       .  S
N62          C69   1.340       .  A
N63         N976   1.310       .  A
N63        Mn978   2.165       .  S
N64         N975   1.310       .  A
N64         C980   1.336       .  A
Mn65        N719   2.216       .  S
Mn65        N267   2.242   1_554  S
Mn65        N517   2.177       .  S
Mn65       Cl751   2.554       .  S
Mn66        N508   2.216       .  S
Mn66       N1427   2.213   1_455  S
Mn66        N975   2.165       .  S
Mn66      Cl1663   2.538   1_455  S
Cl67       Mn966   2.548       .  S
Cl67       Mn749   2.554   1_545  S
Cl67      Mn1662   2.537   1_545  S
C68         N976   1.336       .  A
C68         C226   1.430       .  S
C69         C224   1.428       .  S
N70          N71   1.331       .  A
N70          N76   1.317       .  A
N70        Mn327   2.240       .  S
N71          C78   1.360       .  A
N72          N73   1.329       .  A
N72         N302   1.313       .  A
N72         Mn88   2.235       .  S
N73          C79   1.361       .  A
N74          N75   1.316       .  A
N74         N300   1.313       .  A
N74         Mn99   2.174   1_556  S
N75         C307   1.344       .  A
N76          N77   1.328       .  A
N76         Mn88   2.244       .  S
N77          C78   1.358       .  A
C79         N303   1.344       .  A
C79         C220   1.445       .  S
N80          N86   1.322       .  A
N80          N81   1.321       .  A
N80        Mn110   2.181       .  S
N81          C89   1.344       .  A
N82          N83   1.324       .  A
N82          N84   1.318       .  A
N82         Mn88   2.210       .  S
N83          C90   1.355       .  A
N84          N85   1.310       .  A
N84        Mn110   2.166       .  S
N85          C90   1.338       .  A
N86          N87   1.317       .  A
N86         Mn88   2.205       .  S
N87          C89   1.345       .  A
Mn88       Cl340   2.570       .  S
C89         C213   1.427       .  S
C90         C212   1.417       .  S
N91          N92   1.310       .  A
N91          N97   1.322       .  A
N91         Mn99   2.178       .  S
N92         C100   1.338       .  A
N93          N95   1.325       .  A
N93          N94   1.316       .  A
N93        Mn111   2.212       .  S
N94         C101   1.344       .  A
N95          N96   1.322       .  A
N95         Mn99   2.189       .  S
N96         C101   1.345       .  A
N97          N98   1.326       .  A
N97        Mn111   2.228       .  S
N98         C100   1.357       .  A
Mn99        N298   2.240   1_554  S
Mn99       Cl112   2.526       .  S
C100        C209   1.424       .  S
C101        C215   1.425       .  S
N102        N108   1.313       .  A
N102        N331   1.316       .  A
N102       Mn338   2.173   1_554  S
N103        N330   1.316       .  A
N103        C341   1.343       .  A
N104        N105   1.340       .  A
N104        N106   1.316       .  A
N104       Mn111   2.273       .  S
N105        C114   1.368       .  A
N106        N107   1.318       .  A
N106       Mn338   2.210   1_554  S
N107        C114   1.353       .  A
N108        N109   1.331       .  A
N108       Mn111   2.239       .  S
N109        C113   1.364       .  A
Mn110       N330   2.174       .  S
Mn110       N334   2.211       .  S
Mn110      Cl340   2.512       .  S
Mn111      Cl112   2.582       .  S
Cl112      Mn316   2.570   1_554  S
Cl112      Mn338   2.512   1_554  S
C113        N331   1.343       .  A
C113        C217   1.449       .  S
N115        N116   1.311       .  A
N115        N121   1.319       .  A
N115       Mn144   2.181       .  S
N116        C123   1.339       .  A
N117        N119   1.321       .  A
N117       N1030   1.324       .  A
N117       Mn133   2.235       .  S
N118       N1029   1.324       .  A
N118        C124   1.354       .  A
N119       N1032   1.318       .  A
N119       Mn144   2.164       .  S
N120       N1031   1.318       .  A
N120        C124   1.339       .  A
N121        N122   1.325       .  A
N121       Mn133   2.194       .  S
N122        C123   1.352       .  A
C123        C216   1.422       .  S
C124        C225   1.436       .  S
N125        N131   1.314       .  A
N125        N126   1.316       .  A
N125       Mn155   2.157       .  S
N126        C134   1.341       .  A
N127        N128   1.331       .  A
N127        N129   1.315       .  A
N127       Mn133   2.268       .  S
N128        C135   1.367       .  A
N129        N130   1.321       .  A
N129      Mn1067   2.185       .  S
N130        C135   1.349       .  A
N131        N132   1.323       .  A
N131      Mn1045   2.220   1_455  S
N132        C134   1.356       .  A
Mn133      N1043   2.221       .  S
Mn133      Cl157   2.578       .  S
C134        C208   1.427       .  S
N136        N137   1.319       .  A
N136        N142   1.315       .  A
N136      Mn1056   2.190   1_455  S
N137        C145   1.350       .  A
N138        N140   1.314       .  A
N138        N139   1.322       .  A
N138      Mn1068   2.215       .  S
N139        C146   1.356       .  A
N140        N141   1.317       .  A
N140       Mn144   2.163       .  S
N141        C146   1.342       .  A
N142        N143   1.332       .  A
N142       Mn156   2.267       .  S
N143        C145   1.367       .  A
Mn144      N1048   2.190       .  S
Mn144      Cl157   2.489       .  S
C146        C206   1.429       .  S
N147        N153   1.320       .  A
N147       N1060   1.317       .  A
N147       Mn155   2.166   1_655  S
N148       N1059   1.317       .  A
N148        C158   1.340       .  A
N149        N150   1.325       .  A
N149        N151   1.319       .  A
N149       Mn156   2.198       .  S
N150        C159   1.353       .  A
N151        N152   1.310       .  A
N151       Mn155   2.176       .  S
N152        C159   1.338       .  A
N153       N1066   1.323       .  A
N153       Mn156   2.230   1_655  S
N154       N1065   1.323       .  A
N154        C158   1.354       .  A
Mn155      N1041   2.185   1_455  S
Mn155     Cl1069   2.492       .  S
Mn156      N1050   2.216   1_455  S
Mn156     Cl1069   2.583       .  S
Cl157     Mn1067   2.492       .  S
Cl157     Mn1068   2.583       .  S
C158        C227   1.433       .  S
C159        C214   1.422       .  S
N160        N161   1.334       .  A
N160        N166   1.316       .  A
N160       Mn189   2.261       .  S
N161        C168   1.363       .  A
N162        N164   1.316       .  A
N162        N163   1.314       .  A
N162       Mn178   2.155       .  S
N163        C169   1.339       .  A
N164        N165   1.323       .  A
N164       Mn645   2.217   1_545  S
N165        C169   1.356       .  A
N166        N167   1.320       .  A
N166       Mn634   2.201       .  S
N167        C168   1.352       .  A
C169        C211   1.423       .  S
N170        N176   1.317       .  A
N170        N171   1.324       .  A
N170       Mn200   2.202       .  S
N171        C179   1.355       .  A
N172        N173   1.320       .  A
N172        N174   1.320       .  A
N172       Mn634   2.178       .  S
N173        C180   1.345       .  A
N174        N175   1.319       .  A
N174       Mn656   2.219       .  S
N175        C180   1.350       .  A
N176        N177   1.312       .  A
N176       Mn178   2.182       .  S
N177        C179   1.342       .  A
Mn178       N622   2.203   1_545  S
Mn178       N628   2.177   1_545  S
Mn178      Cl202   2.514       .  S
C179        C205   1.424       .  S
C180        C223   1.432       .  S
N181        N182   1.323       .  A
N181        N187   1.321       .  A
N181       Mn645   2.233   1_545  S
N182        C190   1.352       .  A
N183        N185   1.318       .  A
N183        N184   1.311       .  A
N183       Mn201   2.183       .  S
N184        C191   1.340       .  A
N185        N186   1.324       .  A
N185       Mn189   2.206       .  S
N186        C191   1.356       .  A
N187        N188   1.321       .  A
N187       Mn657   2.176       .  S
N188        C190   1.344       .  A
Mn189       N620   2.216       .  S
Mn189       N637   2.234       .  S
Mn189      Cl658   2.573       .  S
C190        C222   1.441       .  S
C191        C207   1.422       .  S
N192        N193   1.324       .  A
N192        N198   1.313       .  A
N192       Mn656   2.214       .  S
N193        C203   1.356       .  A
N194        N195   1.323       .  A
N194        N196   1.316       .  A
N194       Mn657   2.215       .  S
N195        C204   1.355       .  A
N196        N197   1.330       .  A
N196       Mn200   2.252       .  S
N197        C204   1.361       .  A
N198        N199   1.316       .  A
N198       Mn201   2.160       .  S
N199        C203   1.341       .  A
Mn200       N630   2.219   1_545  S
Mn200       N648   2.214   1_545  S
Mn200      Cl202   2.568       .  S
Mn201       N643   2.177       .  S
Mn201       N650   2.215       .  S
Mn201      Cl658   2.514       .  S
Cl202      Mn645   2.574   1_545  S
Cl202      Mn657   2.513       .  S
C203        C210   1.430       .  S
C205        C206   1.201       .  T
C207        C208   1.200       .  T
C209        C210   1.202       .  T
C211        C212   1.197       .  T
C213        C214   1.200       .  T
C215        C216   1.199       .  T
C217        C446   1.215       .  T
C218        C445   1.215       .  T
C219        C448   1.212       .  T
C220        C447   1.212       .  T
C221        C678   1.208       .  T
C222        C677   1.208       .  T
C223        C680   1.203       .  T
C224        C679   1.203       .  T
C225       C1138   1.206       .  T
C226       C1137   1.206       .  T
C227       C1140   1.204       .  T
C228       C1139   1.204       .  T
C229        C230   1.536       .  S
C229        C235   1.529       .  S
C229        C233   1.548       .  S
C229        C363   1.531       .  S
C230        H237   1.087       .  S
C230        C231   1.363       .  D
C231        C232   1.561       .  S
C231        C273   1.499       .  S
C232        C236   1.569       .  S
C232        C234   1.563       .  S
C232        H238   1.110       .  S
C233        H239   1.087       .  S
C233        C234   1.375       .  D
C234        C306   1.513       .  S
C235        H240   1.086       .  S
C235        C236   1.369       .  D
C236        C396   1.501       .  S
C241        C242   1.532       .  S
C241        C247   1.525       .  S
C241        C245   1.534       .  S
C241        C283   1.529       .  S
C242        H249   1.085       .  S
C242        C243   1.372       .  D
C243        C244   1.574       .  S
C243        C342   1.523       .  S
C244        C248   1.569       .  S
C244        C246   1.564       .  S
C244        H250   1.110       .  S
C245        H251   1.087       .  S
C245        C246   1.369       .  D
C246        C432   1.498       .  S
C247        H252   1.087       .  S
C247        C248   1.367       .  D
C248        C373   1.494       .  S
N253        N254   1.310       .  A
N253        N259   1.319       .  A
N253       Mn738   2.163       .  S
N254        C261   1.336       .  A
N255       N1169   1.318       .  A
N255        N256   1.311       .  A
N255       Mn271   2.165       .  S
N256       C1174   1.337       .  A
N257       N1167   1.318   1_455  A
N257        N258   1.326       .  A
N257       Mn282   2.227       .  S
N258        C262   1.359   1_455  A
N259        N260   1.330       .  A
N259      Mn1639   2.242   1_455  S
N260        C261   1.362       .  A
C261        C449   1.435       .  S
C262       N1168   1.337       .  A
C262        C456   1.428       .  S
N263        N269   1.317   1_554  A
N263       Mn521   2.216   1_545  S
N265        N266   1.325       .  A
N265        N267   1.318       .  A
N265       Mn727   2.226       .  S
N266        C273   1.355       .  A
N267        N268   1.330       .  A
N268        C273   1.358       .  A
N269        N270   1.323       .  A
N269       Mn271   2.210       .  S
N270        C272   1.350   1_556  A
Mn271      N1627   2.244       .  S
Mn271       N721   2.225   1_545  S
Mn271      Cl295   2.538   1_556  S
C272        C446   1.452       .  S
N274        N275   1.324       .  A
N274        N280   1.316       .  A
N275        C283   1.357       .  A
N276        N277   1.321       .  A
N276       Mn294   2.197       .  S
N277        C284   1.350       .  A
N278        N279   1.325       .  A
N278       Mn738   2.208       .  S
N280        N281   1.326       .  A
N280       Mn750   2.216   1_545  S
N281        C283   1.356       .  A
Mn282       N709   2.163       .  S
Mn282       N734   2.208   1_545  S
Mn282     Cl1207   2.549   1_456  S
C284        C447   1.447       .  S
N285        N286   1.328       .  A
N285        N291   1.319       .  A
N285       Mn293   2.239       .  S
N286        C296   1.362       .  A
N287        N288   1.326   1_565  A
N287        N289   1.318       .  A
N287      Mn1662   2.213       .  S
N288        C297   1.355   1_545  A
N289        N290   1.312       .  A
N289       Mn749   2.176       .  S
N290        C297   1.340       .  A
N291       N1204   1.310       .  A
N291      Mn1206   2.164       .  S
N292       N1203   1.310       .  A
N292       C1208   1.336       .  A
Mn293       N491   2.216       .  S
Mn293       N745   2.177       .  S
Mn293      Cl523   2.554       .  S
Mn294       N736   2.215       .  S
Mn294      N1655   2.213   1_455  S
Mn294      N1203   2.164       .  S
Mn294     Cl1435   2.537   1_455  S
Cl295     Mn1194   2.549   1_554  S
Cl295      Mn521   2.554   1_545  S
Cl295     Mn1434   2.537   1_545  S
C296       N1204   1.336       .  A
C296        C454   1.430       .  S
C297        C452   1.428       .  S
N298        N299   1.331       .  A
N298        N304   1.317       .  A
N299        C306   1.360       .  A
N300        N301   1.329       .  A
N300       Mn316   2.236       .  S
N301        C307   1.361       .  A
N302        N303   1.316       .  A
N302       Mn327   2.174       .  S
N304        N305   1.328       .  A
N304       Mn316   2.245       .  S
N305        C306   1.358       .  A
C307        C448   1.445       .  S
N308        N314   1.322       .  A
N308        N309   1.321       .  A
N308       Mn338   2.180       .  S
N309        C317   1.344       .  A
N310        N311   1.324       .  A
N310        N312   1.318       .  A
N310       Mn316   2.210       .  S
N311        C318   1.355       .  A
N312        N313   1.309       .  A
N312       Mn338   2.165       .  S
N313        C318   1.338       .  A
N314        N315   1.317       .  A
N314       Mn316   2.206       .  S
N315        C317   1.345       .  A
C317        C441   1.427       .  S
C318        C440   1.417       .  S
N319        N320   1.310       .  A
N319        N325   1.322       .  A
N319       Mn327   2.178       .  S
N320        C328   1.337       .  A
N321        N323   1.325       .  A
N321        N322   1.316       .  A
N321       Mn339   2.212       .  S
N322        C329   1.344       .  A
N323        N324   1.322       .  A
N323       Mn327   2.188       .  S
N324        C329   1.345       .  A
N325        N326   1.326       .  A
N325       Mn339   2.229       .  S
N326        C328   1.357       .  A
Mn327      Cl340   2.526       .  S
C328        C437   1.424       .  S
C329        C443   1.425       .  S
N330        N336   1.313       .  A
N332        N333   1.340       .  A
N332        N334   1.316       .  A
N332       Mn339   2.274       .  S
N333        C342   1.368       .  A
N334        N335   1.318       .  A
N335        C342   1.354       .  A
N336        N337   1.331       .  A
N336       Mn339   2.240       .  S
N337        C341   1.364       .  A
Mn339      Cl340   2.582       .  S
C341        C445   1.449       .  S
N343        N344   1.311       .  A
N343        N349   1.319       .  A
N343       Mn372   2.181       .  S
N344        C351   1.339       .  A
N345        N347   1.321       .  A
N345       N1258   1.324       .  A
N345       Mn361   2.234       .  S
N346       N1257   1.324       .  A
N346        C352   1.354       .  A
N347       N1260   1.318       .  A
N347       Mn372   2.164       .  S
N348       N1259   1.318       .  A
N348        C352   1.339       .  A
N349        N350   1.324       .  A
N349       Mn361   2.194       .  S
N350        C351   1.352       .  A
C351        C444   1.422       .  S
C352        C453   1.436       .  S
N353        N359   1.314       .  A
N353        N354   1.316       .  A
N353       Mn383   2.156       .  S
N354        C362   1.341       .  A
N355        N356   1.331       .  A
N355        N357   1.315       .  A
N355       Mn361   2.268       .  S
N356        C363   1.367       .  A
N357        N358   1.321       .  A
N357      Mn1295   2.186       .  S
N358        C363   1.349       .  A
N359        N360   1.322       .  A
N359      Mn1273   2.220   1_455  S
N360        C362   1.356       .  A
Mn361      N1271   2.220       .  S
Mn361      Cl385   2.577       .  S
C362        C436   1.427       .  S
N364        N365   1.319       .  A
N364        N370   1.315       .  A
N364      Mn1284   2.190   1_455  S
N365        C373   1.350       .  A
N366        N368   1.314       .  A
N366        N367   1.322       .  A
N366      Mn1296   2.215       .  S
N367        C374   1.356       .  A
N368        N369   1.317       .  A
N368       Mn372   2.163       .  S
N369        C374   1.342       .  A
N370        N371   1.332       .  A
N370       Mn384   2.268       .  S
N371        C373   1.367       .  A
Mn372      N1276   2.190       .  S
Mn372      Cl385   2.489       .  S
C374        C434   1.429       .  S
N375       N1288   1.317       .  A
N375        N381   1.320       .  A
N375       Mn383   2.166   1_655  S
N376       N1287   1.317       .  A
N376        C386   1.340       .  A
N377        N378   1.325       .  A
N377        N379   1.319       .  A
N377       Mn384   2.197       .  S
N378        C387   1.353       .  A
N379        N380   1.310       .  A
N379       Mn383   2.177       .  S
N380        C387   1.338       .  A
N381       N1294   1.323       .  A
N381       Mn384   2.230   1_655  S
N382       N1293   1.323       .  A
N382        C386   1.354       .  A
Mn383      N1269   2.186   1_455  S
Mn383     Cl1297   2.492       .  S
Mn384      N1278   2.215   1_455  S
Mn384     Cl1297   2.583       .  S
Cl385     Mn1295   2.492       .  S
Cl385     Mn1296   2.583       .  S
C386        C455   1.433       .  S
C387        C442   1.422       .  S
N388        N389   1.334       .  A
N388        N394   1.316       .  A
N388       Mn417   2.261       .  S
N389        C396   1.363       .  A
N390        N392   1.316       .  A
N390        N391   1.314       .  A
N390       Mn406   2.155       .  S
N391        C397   1.339       .  A
N392        N393   1.323       .  A
N392       Mn873   2.216   1_545  S
N393        C397   1.356       .  A
N394        N395   1.320       .  A
N394       Mn862   2.202       .  S
N395        C396   1.352       .  A
C397        C439   1.423       .  S
N398        N404   1.317       .  A
N398        N399   1.324       .  A
N398       Mn428   2.202       .  S
N399        C407   1.355       .  A
N400        N401   1.320       .  A
N400        N402   1.320       .  A
N400       Mn862   2.178       .  S
N401        C408   1.345       .  A
N402        N403   1.319       .  A
N402       Mn884   2.219       .  S
N403        C408   1.350       .  A
N404        N405   1.312       .  A
N404       Mn406   2.182       .  S
N405        C407   1.342       .  A
Mn406       N850   2.202   1_545  S
Mn406       N856   2.178   1_545  S
Mn406      Cl430   2.514       .  S
C407        C433   1.424       .  S
C408        C451   1.431       .  S
N409        N410   1.323       .  A
N409        N415   1.321       .  A
N409       Mn873   2.233   1_545  S
N410        C418   1.353       .  A
N411        N413   1.318       .  A
N411        N412   1.311       .  A
N411       Mn429   2.183       .  S
N412        C419   1.340       .  A
N413        N414   1.324       .  A
N413       Mn417   2.205       .  S
N414        C419   1.356       .  A
N415        N416   1.321       .  A
N415       Mn885   2.176       .  S
N416        C418   1.344       .  A
Mn417       N848   2.216       .  S
Mn417       N865   2.233       .  S
Mn417      Cl886   2.573       .  S
C418        C450   1.441       .  S
C419        C435   1.422       .  S
N420        N421   1.324       .  A
N420        N426   1.313       .  A
N420       Mn884   2.214       .  S
N421        C431   1.356       .  A
N422        N423   1.323       .  A
N422        N424   1.316       .  A
N422       Mn885   2.215       .  S
N423        C432   1.355       .  A
N424        N425   1.330       .  A
N424       Mn428   2.252       .  S
N425        C432   1.361       .  A
N426        N427   1.316       .  A
N426       Mn429   2.160       .  S
N427        C431   1.341       .  A
Mn428       N858   2.219   1_545  S
Mn428       N876   2.214   1_545  S
Mn428      Cl430   2.568       .  S
Mn429       N871   2.177       .  S
Mn429       N878   2.214       .  S
Mn429      Cl886   2.514       .  S
Cl430      Mn873   2.574   1_545  S
Cl430      Mn885   2.514       .  S
C431        C438   1.430       .  S
C433        C434   1.201       .  T
C435        C436   1.200       .  T
C437        C438   1.202       .  T
C439        C440   1.197       .  T
C441        C442   1.200       .  T
C443        C444   1.199       .  T
C449        C906   1.208       .  T
C450        C905   1.208       .  T
C451        C908   1.203       .  T
C452        C907   1.203       .  T
C453       C1366   1.206       .  T
C454       C1365   1.206       .  T
C455       C1368   1.204       .  T
C456       C1367   1.204       .  T
C457        C458   1.536       .  S
C457        C463   1.529       .  S
C457        C461   1.548       .  S
C457        C591   1.531       .  S
C458        H465   1.087       .  S
C458        C459   1.363       .  D
C459        C460   1.561       .  S
C459        C501   1.498       .  S
C460        C464   1.569       .  S
C460        C462   1.563       .  S
C460        H466   1.110       .  S
C461        H467   1.087       .  S
C461        C462   1.375       .  D
C462        C534   1.513       .  S
C463        H468   1.086       .  S
C463        C464   1.369       .  D
C464        C624   1.502       .  S
C469        C470   1.531       .  S
C469        C475   1.524       .  S
C469        C473   1.534       .  S
C469        C511   1.528       .  S
C470        H477   1.085       .  S
C470        C471   1.372       .  D
C471        C472   1.574       .  S
C471        C570   1.522       .  S
C472        C476   1.569       .  S
C472        C474   1.564       .  S
C472        H478   1.110       .  S
C473        H479   1.087       .  S
C473        C474   1.369       .  D
C474        C660   1.497       .  S
C475        H480   1.087       .  S
C475        C476   1.367       .  D
C476        C601   1.493       .  S
N481        N482   1.310       .  A
N481        N487   1.319       .  A
N482        C489   1.336       .  A
N483       N1397   1.318       .  A
N483        N484   1.311       .  A
N483       Mn499   2.165       .  S
N484       C1402   1.337       .  A
N485       N1395   1.318   1_455  A
N485        N486   1.326       .  A
N485       Mn510   2.228       .  S
N486        C490   1.359   1_455  A
N487        N488   1.330       .  A
N487       Mn955   2.243   1_455  S
N488        C489   1.362       .  A
C489        C677   1.435       .  S
C490       N1396   1.337       .  A
C490        C684   1.428       .  S
N491        N497   1.317       .  A
N491        N720   1.326       .  A
N492        N719   1.326       .  A
N492        C728   1.354       .  A
N493        N494   1.325       .  A
N493        N495   1.318       .  A
N494        C501   1.355       .  A
N495        N496   1.330       .  A
N495       Mn749   2.241       .  S
N496        C501   1.358       .  A
N497        N498   1.323       .  A
N497       Mn499   2.209       .  S
N498        C500   1.350       .  A
Mn499       N943   2.242       .  S
Mn499      Cl523   2.538       .  S
C500        N720   1.354       .  A
C500        C674   1.452       .  S
N502        N503   1.324       .  A
N502        N508   1.316       .  A
N502       Mn738   2.225   1_554  S
N503        C511   1.357       .  A
N504        N734   1.314   1_554  A
N504        N505   1.321       .  A
N504       Mn522   2.197       .  S
N505        C512   1.350   1_554  A
N506        N732   1.314       .  A
N506        N507   1.325       .  A
N507        C740   1.353       .  A
N508        N509   1.326       .  A
N509        C511   1.356       .  A
Mn510       N730   2.225       .  S
Mn510     Cl1435   2.549   1_455  S
C512        N735   1.353       .  A
C512        C675   1.447       .  S
N513        N514   1.328       .  A
N513        N519   1.319       .  A
N513       Mn521   2.239       .  S
N514        C524   1.362       .  A
N515        N516   1.326       .  A
N515        N517   1.318       .  A
N515       Mn978   2.213       .  S
N516        C525   1.355       .  A
N517        N518   1.312       .  A
N518        C525   1.340       .  A
N519       N1432   1.310       .  A
N519      Mn1434   2.164       .  S
N520       N1431   1.310       .  A
N520       C1436   1.336       .  A
Mn521       N723   2.241   1_554  S
Mn522       N971   2.213   1_455  S
Mn522      N1431   2.165       .  S
Mn522     Cl1207   2.537   1_465  S
Cl523     Mn1422   2.549       .  S
Cl523     Mn1206   2.537       .  S
C524       N1432   1.336       .  A
C524        C682   1.429       .  S
C525        C680   1.428       .  S
N526        N527   1.331       .  A
N526        N532   1.317       .  A
N526       Mn783   2.240       .  S
N527        C534   1.360       .  A
N528        N758   1.313       .  A
N528        N529   1.329       .  A
N528       Mn544   2.235       .  S
N529        C535   1.361       .  A
N530        N756   1.313       .  A
N530        N531   1.316       .  A
N530       Mn555   2.175   1_556  S
N531        C763   1.344       .  A
N532        N533   1.328       .  A
N532       Mn544   2.245       .  S
N533        C534   1.358       .  A
C535        N759   1.344       .  A
C535        C676   1.445       .  S
N536        N542   1.322       .  A
N536        N537   1.321       .  A
N536       Mn566   2.180       .  S
N537        C545   1.344       .  A
N538        N539   1.324       .  A
N538        N540   1.318       .  A
N538       Mn544   2.210       .  S
N539        C546   1.355       .  A
N540        N541   1.310       .  A
N540       Mn566   2.166       .  S
N541        C546   1.338       .  A
N542        N543   1.317       .  A
N542       Mn544   2.206       .  S
N543        C545   1.345       .  A
Mn544      Cl796   2.570       .  S
C545        C669   1.427       .  S
C546        C668   1.417       .  S
N547        N548   1.310       .  A
N547        N553   1.322       .  A
N547       Mn555   2.178       .  S
N548        C556   1.337       .  A
N549        N551   1.325       .  A
N549        N550   1.315       .  A
N549       Mn567   2.211       .  S
N550        C557   1.344       .  A
N551        N552   1.322       .  A
N551       Mn555   2.189       .  S
N552        C557   1.346       .  A
N553        N554   1.326       .  A
N553       Mn567   2.228       .  S
N554        C556   1.357       .  A
Mn555       N754   2.240   1_554  S
Mn555      Cl568   2.526       .  S
C556        C665   1.424       .  S
C557        C671   1.425       .  S
N558        N787   1.316       .  A
N558        N564   1.313       .  A
N558       Mn794   2.174   1_554  S
N559        N786   1.316       .  A
N559        C797   1.343       .  A
N560        N561   1.340       .  A
N560        N562   1.316       .  A
N560       Mn567   2.273       .  S
N561        C570   1.368       .  A
N562        N563   1.318       .  A
N562       Mn794   2.210   1_554  S
N563        C570   1.354       .  A
N564        N565   1.330       .  A
N564       Mn567   2.238       .  S
N565        C569   1.363       .  A
Mn566       N786   2.174       .  S
Mn566       N790   2.210       .  S
Mn566      Cl796   2.512       .  S
Mn567      Cl568   2.582       .  S
Cl568      Mn772   2.570   1_554  S
Cl568      Mn794   2.511   1_554  S
C569        N787   1.343       .  A
C569        C673   1.449       .  S
N571        N572   1.311       .  A
N571        N577   1.319       .  A
N571       Mn600   2.181       .  S
N572        C579   1.339       .  A
N573        N575   1.321       .  A
N573       N1486   1.324       .  A
N573       Mn589   2.234       .  S
N574       N1485   1.324       .  A
N574        C580   1.354       .  A
N575       N1488   1.318       .  A
N575       Mn600   2.164       .  S
N576       N1487   1.318       .  A
N576        C580   1.339       .  A
N577        N578   1.324       .  A
N577       Mn589   2.194       .  S
N578        C579   1.352       .  A
C579        C672   1.422       .  S
C580        C681   1.436       .  S
N581        N587   1.314       .  A
N581        N582   1.316       .  A
N581       Mn611   2.157       .  S
N582        C590   1.341       .  A
N583        N584   1.331       .  A
N583        N585   1.315       .  A
N583       Mn589   2.267       .  S
N584        C591   1.366       .  A
N585        N586   1.321       .  A
N585      Mn1523   2.187       .  S
N586        C591   1.350       .  A
N587        N588   1.323       .  A
N587      Mn1501   2.220   1_455  S
N588        C590   1.356       .  A
Mn589      N1499   2.220       .  S
Mn589      Cl613   2.577       .  S
C590        C664   1.427       .  S
N592        N593   1.319       .  A
N592        N598   1.315       .  A
N592      Mn1512   2.190   1_455  S
N593        C601   1.349       .  A
N594        N596   1.314       .  A
N594        N595   1.322       .  A
N594      Mn1524   2.216       .  S
N595        C602   1.356       .  A
N596        N597   1.317       .  A
N596       Mn600   2.163       .  S
N597        C602   1.342       .  A
N598        N599   1.332       .  A
N598       Mn612   2.266       .  S
N599        C601   1.367       .  A
Mn600      N1504   2.190       .  S
Mn600      Cl613   2.489       .  S
C602        C662   1.429       .  S
N603       N1516   1.317       .  A
N603        N609   1.320       .  A
N603       Mn611   2.166   1_655  S
N604       N1515   1.317       .  A
N604        C614   1.340       .  A
N605        N606   1.325       .  A
N605        N607   1.319       .  A
N605       Mn612   2.197       .  S
N606        C615   1.353       .  A
N607        N608   1.310       .  A
N607       Mn611   2.177       .  S
N608        C615   1.338       .  A
N609       N1522   1.323       .  A
N609       Mn612   2.230   1_655  S
N610       N1521   1.323       .  A
N610        C614   1.354       .  A
Mn611      N1497   2.186   1_455  S
Mn611     Cl1525   2.492       .  S
Mn612      N1506   2.216   1_455  S
Mn612     Cl1525   2.583       .  S
Cl613     Mn1523   2.492       .  S
Cl613     Mn1524   2.583       .  S
C614        C683   1.433       .  S
C615        C670   1.422       .  S
N616        N617   1.334       .  A
N616        N622   1.316       .  A
N616       Mn645   2.261       .  S
N617        C624   1.363       .  A
N618        N620   1.316       .  A
N618        N619   1.314       .  A
N618       Mn634   2.155       .  S
N619        C625   1.339       .  A
N620        N621   1.323       .  A
N621        C625   1.356       .  A
N622        N623   1.320       .  A
N623        C624   1.352       .  A
C625        C667   1.423       .  S
N626        N632   1.317       .  A
N626        N627   1.324       .  A
N626       Mn656   2.202       .  S
N627        C635   1.355       .  A
N628        N629   1.320       .  A
N628        N630   1.320       .  A
N629        C636   1.345       .  A
N630        N631   1.319       .  A
N631        C636   1.350       .  A
N632        N633   1.312       .  A
N632       Mn634   2.182       .  S
N633        C635   1.341       .  A
Mn634      Cl658   2.514       .  S
C635        C661   1.424       .  S
C636        C679   1.431       .  S
N637        N638   1.323       .  A
N637        N643   1.321       .  A
N638        C646   1.352       .  A
N639        N641   1.318       .  A
N639        N640   1.311       .  A
N639       Mn657   2.182   1_565  S
N640        C647   1.340       .  A
N641        N642   1.324       .  A
N641       Mn645   2.206       .  S
N642        C647   1.356       .  A
N643        N644   1.321       .  A
N644        C646   1.344       .  A
C646        C678   1.441       .  S
C647        C663   1.422       .  S
N648        N649   1.324       .  A
N648        N654   1.313       .  A
N649        C659   1.357       .  A
N650        N651   1.323       .  A
N650        N652   1.316       .  A
N651        C660   1.355       .  A
N652        N653   1.330       .  A
N652       Mn656   2.251       .  S
N653        C660   1.361       .  A
N654        N655   1.316       .  A
N654       Mn657   2.160   1_565  S
N655        C659   1.340       .  A
Mn656      Cl658   2.569       .  S
C659        C666   1.430       .  S
C661        C662   1.201       .  T
C663        C664   1.200       .  T
C665        C666   1.201       .  T
C667        C668   1.197       .  T
C669        C670   1.200       .  T
C671        C672   1.199       .  T
C673        C902   1.215       .  T
C674        C901   1.215       .  T
C675        C904   1.212       .  T
C676        C903   1.212       .  T
C681       C1594   1.206       .  T
C682       C1593   1.206       .  T
C683       C1596   1.204       .  T
C684       C1595   1.204       .  T
C685        C686   1.536       .  S
C685        C691   1.529       .  S
C685        C689   1.548       .  S
C685        C819   1.531       .  S
C686        H693   1.087       .  S
C686        C687   1.363       .  D
C687        C688   1.561       .  S
C687        C729   1.497       .  S
C688        C692   1.568       .  S
C688        C690   1.562       .  S
C688        H694   1.110       .  S
C689        H695   1.087       .  S
C689        C690   1.375       .  D
C690        C762   1.512       .  S
C691        H696   1.086       .  S
C691        C692   1.369       .  D
C692        C852   1.501       .  S
C697        C698   1.531       .  S
C697        C703   1.524       .  S
C697        C701   1.534       .  S
C697        C739   1.528       .  S
C698        H705   1.085       .  S
C698        C699   1.372       .  D
C699        C700   1.574       .  S
C699        C798   1.522       .  S
C700        C704   1.569       .  S
C700        C702   1.564       .  S
C700        H706   1.110       .  S
C701        H707   1.087       .  S
C701        C702   1.369       .  D
C702        C888   1.497       .  S
C703        H708   1.087       .  S
C703        C704   1.367       .  D
C704        C829   1.493       .  S
N709        N710   1.310       .  A
N709        N715   1.319       .  A
N710        C717   1.336       .  A
N711       N1625   1.318       .  A
N711        N712   1.311       .  A
N711       Mn727   2.165       .  S
N712       C1630   1.337       .  A
N713       N1623   1.318   1_455  A
N713        N714   1.326       .  A
N713       Mn738   2.228       .  S
N714        C718   1.359   1_455  A
N715        N716   1.330       .  A
N715      Mn1183   2.244   1_455  S
N716        C717   1.362       .  A
C717        C905   1.435       .  S
C718       N1624   1.337       .  A
C718        C912   1.428       .  S
N719        N725   1.317   1_554  A
N721        N722   1.325       .  A
N721        N723   1.318       .  A
N722        C729   1.355       .  A
N723        N724   1.329       .  A
N724        C729   1.358       .  A
N725        N726   1.323       .  A
N725       Mn727   2.209       .  S
N726        C728   1.350   1_556  A
Mn727      N1171   2.243       .  S
Mn727      Cl751   2.539   1_556  S
C728        C902   1.452       .  S
N730        N731   1.324       .  A
N730        N736   1.316       .  A
N731        C739   1.357       .  A
N732        N733   1.321       .  A
N732       Mn750   2.197       .  S
N733        C740   1.350       .  A
N734        N735   1.325       .  A
N736        N737   1.326       .  A
N737        C739   1.356       .  A
Mn738     Cl1663   2.549   1_456  S
C740        C903   1.446       .  S
N741        N742   1.328       .  A
N741        N747   1.319       .  A
N741       Mn749   2.238       .  S
N742        C752   1.362       .  A
N743        N744   1.326       .  A
N743        N745   1.318       .  A
N743      Mn1206   2.213       .  S
N744        C753   1.355       .  A
N745        N746   1.312       .  A
N746        C753   1.340       .  A
N747       N1660   1.310       .  A
N747      Mn1662   2.165       .  S
N748       N1659   1.310       .  A
N748       C1664   1.336       .  A
Mn750      N1199   2.213   1_455  S
Mn750      N1659   2.165       .  S
Mn750      Cl979   2.536   1_465  S
Cl751     Mn1650   2.549   1_554  S
Cl751      Mn978   2.537       .  S
C752       N1660   1.336       .  A
C752        C910   1.429       .  S
C753        C908   1.428       .  S
N754        N755   1.331       .  A
N754        N760   1.317       .  A
N755        C762   1.360       .  A
N756        N757   1.329       .  A
N756       Mn772   2.235       .  S
N757        C763   1.361       .  A
N758        N759   1.316       .  A
N758       Mn783   2.173       .  S
N760        N761   1.328       .  A
N760       Mn772   2.245       .  S
N761        C762   1.358       .  A
C763        C904   1.445       .  S
N764        N770   1.322       .  A
N764        N765   1.321       .  A
N764       Mn794   2.180       .  S
N765        C773   1.344       .  A
N766        N767   1.324       .  A
N766        N768   1.318       .  A
N766       Mn772   2.209       .  S
N767        C774   1.355       .  A
N768        N769   1.310       .  A
N768       Mn794   2.166       .  S
N769        C774   1.338       .  A
N770        N771   1.317       .  A
N770       Mn772   2.207       .  S
N771        C773   1.345       .  A
C773        C897   1.427       .  S
C774        C896   1.417       .  S
N775        N776   1.310       .  A
N775        N781   1.322       .  A
N775       Mn783   2.178       .  S
N776        C784   1.337       .  A
N777        N779   1.325       .  A
N777        N778   1.315       .  A
N777       Mn795   2.211       .  S
N778        C785   1.344       .  A
N779        N780   1.322       .  A
N779       Mn783   2.189       .  S
N780        C785   1.346       .  A
N781        N782   1.326       .  A
N781       Mn795   2.228       .  S
N782        C784   1.357       .  A
Mn783      Cl796   2.526       .  S
C784        C893   1.424       .  S
C785        C899   1.425       .  S
N786        N792   1.313       .  A
N788        N789   1.340       .  A
N788        N790   1.316       .  A
N788       Mn795   2.273       .  S
N789        C798   1.368       .  A
N790        N791   1.318       .  A
N791        C798   1.354       .  A
N792        N793   1.330       .  A
N792       Mn795   2.238       .  S
N793        C797   1.363       .  A
Mn795      Cl796   2.582       .  S
C797        C901   1.449       .  S
N799        N800   1.311       .  A
N799        N805   1.319       .  A
N799       Mn828   2.181       .  S
N800        C807   1.339       .  A
N801        N803   1.321       .  A
N801       N1714   1.324       .  A
N801       Mn817   2.233       .  S
N802       N1713   1.324       .  A
N802        C808   1.354       .  A
N803       N1716   1.318       .  A
N803       Mn828   2.164       .  S
N804       N1715   1.318       .  A
N804        C808   1.339       .  A
N805        N806   1.324       .  A
N805       Mn817   2.194       .  S
N806        C807   1.352       .  A
C807        C900   1.422       .  S
C808        C909   1.436       .  S
N809        N815   1.314       .  A
N809        N810   1.316       .  A
N809       Mn839   2.157       .  S
N810        C818   1.341       .  A
N811        N812   1.331       .  A
N811        N813   1.315       .  A
N811       Mn817   2.266       .  S
N812        C819   1.366       .  A
N813        N814   1.321       .  A
N813      Mn1751   2.186       .  S
N814        C819   1.349       .  A
N815        N816   1.323       .  A
N815      Mn1729   2.220   1_455  S
N816        C818   1.356       .  A
Mn817      N1727   2.220       .  S
Mn817      Cl841   2.577       .  S
C818        C892   1.427       .  S
N820        N821   1.319       .  A
N820        N826   1.315       .  A
N820      Mn1740   2.190   1_455  S
N821        C829   1.349       .  A
N822        N824   1.314       .  A
N822        N823   1.322       .  A
N822      Mn1752   2.216       .  S
N823        C830   1.356       .  A
N824        N825   1.317       .  A
N824       Mn828   2.163       .  S
N825        C830   1.342       .  A
N826        N827   1.332       .  A
N826       Mn840   2.267       .  S
N827        C829   1.367       .  A
Mn828      N1732   2.190       .  S
Mn828      Cl841   2.488       .  S
C830        C890   1.429       .  S
N831       N1744   1.317       .  A
N831        N837   1.320       .  A
N831       Mn839   2.166   1_655  S
N832       N1743   1.317       .  A
N832        C842   1.340       .  A
N833        N834   1.325       .  A
N833        N835   1.319       .  A
N833       Mn840   2.197       .  S
N834        C843   1.353       .  A
N835        N836   1.310       .  A
N835       Mn839   2.177       .  S
N836        C843   1.338       .  A
N837       N1750   1.323       .  A
N837       Mn840   2.231   1_655  S
N838       N1749   1.323       .  A
N838        C842   1.354       .  A
Mn839      N1725   2.186   1_455  S
Mn839     Cl1753   2.492       .  S
Mn840      N1734   2.215   1_455  S
Mn840     Cl1753   2.583       .  S
Cl841     Mn1751   2.492       .  S
Cl841     Mn1752   2.583       .  S
C842        C911   1.433       .  S
C843        C898   1.422       .  S
N844        N845   1.334       .  A
N844        N850   1.316       .  A
N844       Mn873   2.261       .  S
N845        C852   1.363       .  A
N846        N848   1.316       .  A
N846        N847   1.314       .  A
N846       Mn862   2.155       .  S
N847        C853   1.339       .  A
N848        N849   1.323       .  A
N849        C853   1.356       .  A
N850        N851   1.320       .  A
N851        C852   1.352       .  A
C853        C895   1.423       .  S
N854        N860   1.317       .  A
N854        N855   1.324       .  A
N854       Mn884   2.202       .  S
N855        C863   1.355       .  A
N856        N857   1.320       .  A
N856        N858   1.320       .  A
N857        C864   1.345       .  A
N858        N859   1.319       .  A
N859        C864   1.350       .  A
N860        N861   1.312       .  A
N860       Mn862   2.182       .  S
N861        C863   1.342       .  A
Mn862      Cl886   2.514       .  S
C863        C889   1.425       .  S
C864        C907   1.431       .  S
N865        N866   1.323       .  A
N865        N871   1.321       .  A
N866        C874   1.352       .  A
N867        N869   1.318       .  A
N867        N868   1.311       .  A
N867       Mn885   2.182   1_565  S
N868        C875   1.340       .  A
N869        N870   1.324       .  A
N869       Mn873   2.206       .  S
N870        C875   1.356       .  A
N871        N872   1.321       .  A
N872        C874   1.344       .  A
C874        C906   1.441       .  S
C875        C891   1.422       .  S
N876        N877   1.324       .  A
N876        N882   1.313       .  A
N877        C887   1.357       .  A
N878        N879   1.323       .  A
N878        N880   1.316       .  A
N879        C888   1.355       .  A
N880        N881   1.330       .  A
N880       Mn884   2.251       .  S
N881        C888   1.361       .  A
N882        N883   1.316       .  A
N882       Mn885   2.160   1_565  S
N883        C887   1.340       .  A
Mn884      Cl886   2.569       .  S
C887        C894   1.430       .  S
C889        C890   1.201       .  T
C891        C892   1.200       .  T
C893        C894   1.201       .  T
C895        C896   1.197       .  T
C897        C898   1.200       .  T
C899        C900   1.199       .  T
C909       C1822   1.206       .  T
C910       C1821   1.205       .  T
C911       C1824   1.204       .  T
C912       C1823   1.204       .  T
C913        C914   1.536       .  S
C913        C919   1.529       .  S
C913        C917   1.548       .  S
C913       C1047   1.531       .  S
C914        H921   1.087       .  S
C914        C915   1.363       .  D
C915        C916   1.561       .  S
C915        C957   1.498       .  S
C916        C920   1.569       .  S
C916        C918   1.562       .  S
C916        H922   1.110       .  S
C917        H923   1.087       .  S
C917        C918   1.375       .  D
C918        C990   1.512       .  S
C919        H924   1.086       .  S
C919        C920   1.369       .  D
C920       C1080   1.501       .  S
C925        C926   1.531       .  S
C925        C931   1.524       .  S
C925        C929   1.534       .  S
C925        C967   1.528       .  S
C926        H933   1.085       .  S
C926        C927   1.372       .  D
C927        C928   1.574       .  S
C927       C1026   1.522       .  S
C928        C932   1.569       .  S
C928        C930   1.564       .  S
C928        H934   1.110       .  S
C929        H935   1.087       .  S
C929        C930   1.369       .  D
C930       C1116   1.497       .  S
C931        H936   1.087       .  S
C931        C932   1.367       .  D
C932       C1057   1.494       .  S
N937        N938   1.310       .  A
N937        N943   1.319       .  A
N937      Mn1422   2.163       .  S
N938        C945   1.336       .  A
N939        N940   1.311       .  A
N939       Mn955   2.165       .  S
N941        N942   1.326       .  A
N941       Mn966   2.227       .  S
N942        C946   1.359       .  A
N943        N944   1.330       .  A
N944        C945   1.361       .  A
C945       C1133   1.435       .  S
C946       C1140   1.428       .  S
N947        N953   1.317       .  A
N947       N1176   1.326       .  A
N947      Mn1661   2.215   1_545  S
N948       N1175   1.326       .  A
N948       C1184   1.354       .  A
N949        N950   1.325       .  A
N949        N951   1.318       .  A
N949      Mn1411   2.225       .  S
N950        C957   1.355       .  A
N951        N952   1.330       .  A
N951      Mn1205   2.242       .  S
N952        C957   1.358       .  A
N953        N954   1.323       .  A
N953       Mn955   2.209       .  S
N954        C956   1.350       .  A
Mn955      N1405   2.225   1_545  S
Mn955      Cl979   2.539       .  S
C956       N1176   1.354       .  A
C956       C1130   1.452       .  S
N958        N959   1.324       .  A
N958        N964   1.316       .  A
N958      Mn1194   2.225   1_554  S
N959        C967   1.357       .  A
N960       N1190   1.314   1_554  A
N960        N961   1.321       .  A
N960       Mn978   2.197       .  S
N961        C968   1.350   1_554  A
N962       N1188   1.314       .  A
N962        N963   1.325       .  A
N962      Mn1422   2.208       .  S
N963       C1196   1.353       .  A
N964        N965   1.326       .  A
N964      Mn1434   2.215   1_545  S
N965        C967   1.356       .  A
Mn966      N1393   2.164       .  S
Mn966      N1186   2.225       .  S
Mn966      N1418   2.207   1_545  S
C968       N1191   1.353       .  A
C968       C1131   1.447       .  S
N969        N970   1.328       .  A
N969        N975   1.319   1_655  A
N969       Mn977   2.239       .  S
N970        C980   1.362   1_655  A
N971        N972   1.326       .  A
N971        N973   1.318       .  A
N972        C981   1.355       .  A
N973        N974   1.312       .  A
N973      Mn1433   2.177       .  S
N974        C981   1.340       .  A
Mn977      N1631   2.215       .  S
Mn977      N1179   2.242   1_554  S
Mn977      N1429   2.177       .  S
Mn977     Cl1663   2.554       .  S
Mn978      N1420   2.216       .  S
Cl979     Mn1661   2.555   1_545  S
C980       C1138   1.429       .  S
C981       C1136   1.428       .  S
N982        N983   1.331       .  A
N982        N988   1.317       .  A
N982      Mn1239   2.240       .  S
N983        C990   1.360       .  A
N984       N1214   1.313       .  A
N984        N985   1.329       .  A
N984      Mn1000   2.235       .  S
N985        C991   1.361       .  A
N986       N1212   1.313       .  A
N986        N987   1.316       .  A
N986      Mn1011   2.174   1_556  S
N987       C1219   1.344       .  A
N988        N989   1.328       .  A
N988      Mn1000   2.244       .  S
N989        C990   1.358       .  A
C991       N1215   1.344       .  A
C991       C1132   1.445       .  S
N992        N998   1.322       .  A
N992        N993   1.321       .  A
N992      Mn1022   2.180       .  S
N993       C1001   1.344       .  A
N994        N995   1.324       .  A
N994        N996   1.318       .  A
N994      Mn1000   2.209       .  S
N995       C1002   1.355       .  A
N996        N997   1.310       .  A
N996      Mn1022   2.166       .  S
N997       C1002   1.338       .  A
N998        N999   1.317       .  A
N998      Mn1000   2.205       .  S
N999       C1001   1.345       .  A
Mn1000    Cl1252   2.570       .  S
C1001      C1125   1.427       .  S
C1002      C1124   1.417       .  S
N1003      N1004   1.310       .  A
N1003      N1009   1.322       .  A
N1003     Mn1011   2.178       .  S
N1004      C1012   1.338       .  A
N1005      N1007   1.325       .  A
N1005      N1006   1.316       .  A
N1005     Mn1023   2.212       .  S
N1006      C1013   1.344       .  A
N1007      N1008   1.322       .  A
N1007     Mn1011   2.189       .  S
N1008      C1013   1.345       .  A
N1009      N1010   1.326       .  A
N1009     Mn1023   2.228       .  S
N1010      C1012   1.357       .  A
Mn1011     N1210   2.240   1_554  S
Mn1011    Cl1024   2.526       .  S
C1012      C1121   1.424       .  S
C1013      C1127   1.425       .  S
N1014      N1243   1.316       .  A
N1014      N1020   1.313       .  A
N1014     Mn1250   2.173   1_554  S
N1015      N1242   1.316       .  A
N1015      C1253   1.343       .  A
N1016      N1017   1.340       .  A
N1016      N1018   1.316       .  A
N1016     Mn1023   2.273       .  S
N1017      C1026   1.368       .  A
N1018      N1019   1.318       .  A
N1018     Mn1250   2.210   1_554  S
N1019      C1026   1.354       .  A
N1020      N1021   1.331       .  A
N1020     Mn1023   2.239       .  S
N1021      C1025   1.363       .  A
Mn1022     N1242   2.173       .  S
Mn1022     N1246   2.210       .  S
Mn1022    Cl1252   2.511       .  S
Mn1023    Cl1024   2.582       .  S
Cl1024    Mn1228   2.570   1_554  S
Cl1024    Mn1250   2.512   1_554  S
C1025      N1243   1.343       .  A
C1025      C1129   1.449       .  S
N1027      N1028   1.311       .  A
N1027      N1033   1.319       .  A
N1027     Mn1056   2.181       .  S
N1028      C1035   1.339       .  A
N1029      N1031   1.321       .  A
N1029     Mn1045   2.234   1_455  S
N1030      C1036   1.354       .  A
N1031     Mn1056   2.164   1_455  S
N1032      C1036   1.339       .  A
N1033      N1034   1.325       .  A
N1033     Mn1045   2.194       .  S
N1034      C1035   1.352       .  A
C1035      C1128   1.422       .  S
C1036      C1137   1.436       .  S
N1037      N1043   1.314       .  A
N1037      N1038   1.316       .  A
N1037     Mn1067   2.157       .  S
N1038      C1046   1.341       .  A
N1039      N1040   1.331       .  A
N1039      N1041   1.315       .  A
N1039     Mn1045   2.268       .  S
N1040      C1047   1.367       .  A
N1041      N1042   1.321       .  A
N1042      C1047   1.349       .  A
N1043      N1044   1.322       .  A
N1044      C1046   1.356       .  A
Mn1045    Cl1069   2.578   1_655  S
C1046      C1120   1.427       .  S
N1048      N1049   1.319       .  A
N1048      N1054   1.315       .  A
N1049      C1057   1.350       .  A
N1050      N1052   1.314       .  A
N1050      N1051   1.322       .  A
N1051      C1058   1.356       .  A
N1052      N1053   1.317       .  A
N1052     Mn1056   2.163       .  S
N1053      C1058   1.342       .  A
N1054      N1055   1.332       .  A
N1054     Mn1068   2.267       .  S
N1055      C1057   1.367       .  A
Mn1056    Cl1069   2.489   1_655  S
C1058      C1118   1.429       .  S
N1059      N1065   1.320       .  A
N1059     Mn1067   2.166       .  S
N1060      C1070   1.340       .  A
N1061      N1062   1.325       .  A
N1061      N1063   1.319       .  A
N1061     Mn1068   2.197       .  S
N1062      C1071   1.353       .  A
N1063      N1064   1.310       .  A
N1063     Mn1067   2.176       .  S
N1064      C1071   1.338       .  A
N1065     Mn1068   2.230       .  S
N1066      C1070   1.354       .  A
C1070      C1139   1.433       .  S
C1071      C1126   1.422       .  S
N1072      N1073   1.334       .  A
N1072      N1078   1.316       .  A
N1072     Mn1101   2.261       .  S
N1073      C1080   1.363       .  A
N1074      N1076   1.316       .  A
N1074      N1075   1.314       .  A
N1074     Mn1090   2.155       .  S
N1075      C1081   1.339       .  A
N1076      N1077   1.323       .  A
N1076     Mn1557   2.217   1_545  S
N1077      C1081   1.356       .  A
N1078      N1079   1.320       .  A
N1078     Mn1546   2.202       .  S
N1079      C1080   1.352       .  A
C1081      C1123   1.423       .  S
N1082      N1088   1.317       .  A
N1082      N1083   1.324       .  A
N1082     Mn1112   2.202       .  S
N1083      C1091   1.355       .  A
N1084      N1085   1.320       .  A
N1084      N1086   1.320       .  A
N1084     Mn1546   2.178       .  S
N1085      C1092   1.345       .  A
N1086      N1087   1.319       .  A
N1086     Mn1568   2.219       .  S
N1087      C1092   1.350       .  A
N1088      N1089   1.312       .  A
N1088     Mn1090   2.182       .  S
N1089      C1091   1.342       .  A
Mn1090     N1534   2.202   1_545  S
Mn1090     N1540   2.177   1_545  S
Mn1090    Cl1114   2.514       .  S
C1091      C1117   1.424       .  S
C1092      C1135   1.432       .  S
N1093      N1094   1.323       .  A
N1093      N1099   1.321       .  A
N1093     Mn1557   2.233   1_545  S
N1094      C1102   1.352       .  A
N1095      N1097   1.318       .  A
N1095      N1096   1.311       .  A
N1095     Mn1113   2.183       .  S
N1096      C1103   1.341       .  A
N1097      N1098   1.324       .  A
N1097     Mn1101   2.206       .  S
N1098      C1103   1.356       .  A
N1099      N1100   1.321       .  A
N1099     Mn1569   2.176       .  S
N1100      C1102   1.344       .  A
Mn1101     N1532   2.216       .  S
Mn1101     N1549   2.234       .  S
Mn1101    Cl1570   2.573       .  S
C1102      C1134   1.441       .  S
C1103      C1119   1.422       .  S
N1104      N1105   1.324       .  A
N1104      N1110   1.314       .  A
N1104     Mn1568   2.214       .  S
N1105      C1115   1.356       .  A
N1106      N1107   1.323       .  A
N1106      N1108   1.316       .  A
N1106     Mn1569   2.214       .  S
N1107      C1116   1.355       .  A
N1108      N1109   1.330       .  A
N1108     Mn1112   2.252       .  S
N1109      C1116   1.361       .  A
N1110      N1111   1.316       .  A
N1110     Mn1113   2.160       .  S
N1111      C1115   1.341       .  A
Mn1112     N1542   2.219   1_545  S
Mn1112     N1560   2.214   1_545  S
Mn1112    Cl1114   2.568       .  S
Mn1113     N1555   2.177       .  S
Mn1113     N1562   2.215       .  S
Mn1113    Cl1570   2.514       .  S
Cl1114    Mn1557   2.574   1_545  S
Cl1114    Mn1569   2.513       .  S
C1115      C1122   1.430       .  S
C1117      C1118   1.201       .  T
C1119      C1120   1.200       .  T
C1121      C1122   1.202       .  T
C1123      C1124   1.197       .  T
C1125      C1126   1.200       .  T
C1127      C1128   1.199       .  T
C1129      C1358   1.215       .  T
C1130      C1357   1.215       .  T
C1131      C1360   1.212       .  T
C1132      C1359   1.212       .  T
C1133      C1590   1.208       .  T
C1134      C1589   1.208       .  T
C1135      C1592   1.203       .  T
C1136      C1591   1.203       .  T
C1141      C1142   1.536       .  S
C1141      C1147   1.529       .  S
C1141      C1145   1.548       .  S
C1141      C1275   1.531       .  S
C1142      H1149   1.087       .  S
C1142      C1143   1.363       .  D
C1143      C1144   1.561       .  S
C1143      C1185   1.499       .  S
C1144      C1148   1.569       .  S
C1144      C1146   1.563       .  S
C1144      H1150   1.110       .  S
C1145      H1151   1.087       .  S
C1145      C1146   1.375       .  D
C1146      C1218   1.513       .  S
C1147      H1152   1.086       .  S
C1147      C1148   1.369       .  D
C1148      C1308   1.501       .  S
C1153      C1154   1.531       .  S
C1153      C1159   1.524       .  S
C1153      C1157   1.534       .  S
C1153      C1195   1.529       .  S
C1154      H1161   1.085       .  S
C1154      C1155   1.372       .  D
C1155      C1156   1.574       .  S
C1155      C1254   1.523       .  S
C1156      C1160   1.569       .  S
C1156      C1158   1.564       .  S
C1156      H1162   1.110       .  S
C1157      H1163   1.087       .  S
C1157      C1158   1.369       .  D
C1158      C1344   1.497       .  S
C1159      H1164   1.087       .  S
C1159      C1160   1.367       .  D
C1160      C1285   1.494       .  S
N1165      N1166   1.310       .  A
N1165      N1171   1.319       .  A
N1165     Mn1650   2.163       .  S
N1166      C1173   1.336       .  A
N1167      N1168   1.311       .  A
N1167     Mn1183   2.165       .  S
N1169      N1170   1.326       .  A
N1169     Mn1194   2.227       .  S
N1170      C1174   1.359       .  A
N1171      N1172   1.330       .  A
N1172      C1173   1.362       .  A
C1173      C1361   1.435       .  S
C1174      C1368   1.428       .  S
N1175      N1181   1.317   1_554  A
N1175     Mn1433   2.215   1_545  S
N1177      N1178   1.325       .  A
N1177      N1179   1.318       .  A
N1177     Mn1639   2.226       .  S
N1178      C1185   1.355       .  A
N1179      N1180   1.330       .  A
N1180      C1185   1.358       .  A
N1181      N1182   1.323       .  A
N1181     Mn1183   2.210       .  S
N1182      C1184   1.350   1_556  A
Mn1183     N1633   2.225   1_545  S
Mn1183    Cl1207   2.538   1_556  S
C1184      C1358   1.452       .  S
N1186      N1187   1.324       .  A
N1186      N1192   1.316       .  A
N1187      C1195   1.357       .  A
N1188      N1189   1.321       .  A
N1188     Mn1206   2.197       .  S
N1189      C1196   1.350       .  A
N1190      N1191   1.325       .  A
N1190     Mn1650   2.208       .  S
N1192      N1193   1.326       .  A
N1192     Mn1662   2.216   1_545  S
N1193      C1195   1.356       .  A
Mn1194     N1621   2.163       .  S
Mn1194     N1646   2.208   1_545  S
C1196      C1359   1.447       .  S
N1197      N1198   1.328       .  A
N1197      N1203   1.319   1_655  A
N1197     Mn1205   2.240       .  S
N1198      C1208   1.362   1_655  A
N1199      N1200   1.326   1_565  A
N1199      N1201   1.318       .  A
N1200      C1209   1.355   1_545  A
N1201      N1202   1.312       .  A
N1201     Mn1661   2.176       .  S
N1202      C1209   1.340       .  A
Mn1205     N1403   2.216       .  S
Mn1205     N1657   2.177       .  S
Mn1205    Cl1435   2.554       .  S
Mn1206     N1648   2.216       .  S
Cl1207    Mn1433   2.554   1_545  S
C1208      C1366   1.430       .  S
C1209      C1364   1.428       .  S
N1210      N1211   1.331       .  A
N1210      N1216   1.317       .  A
N1211      C1218   1.360       .  A
N1212      N1213   1.329       .  A
N1212     Mn1228   2.235       .  S
N1213      C1219   1.361       .  A
N1214      N1215   1.316       .  A
N1214     Mn1239   2.174       .  S
N1216      N1217   1.329       .  A
N1216     Mn1228   2.245       .  S
N1217      C1218   1.358       .  A
C1219      C1360   1.445       .  S
N1220      N1226   1.322       .  A
N1220      N1221   1.321       .  A
N1220     Mn1250   2.180       .  S
N1221      C1229   1.344       .  A
N1222      N1223   1.324       .  A
N1222      N1224   1.318       .  A
N1222     Mn1228   2.210       .  S
N1223      C1230   1.355       .  A
N1224      N1225   1.309       .  A
N1224     Mn1250   2.165       .  S
N1225      C1230   1.338       .  A
N1226      N1227   1.317       .  A
N1226     Mn1228   2.206       .  S
N1227      C1229   1.345       .  A
C1229      C1353   1.427       .  S
C1230      C1352   1.417       .  S
N1231      N1232   1.310       .  A
N1231      N1237   1.322       .  A
N1231     Mn1239   2.178       .  S
N1232      C1240   1.337       .  A
N1233      N1235   1.325       .  A
N1233      N1234   1.316       .  A
N1233     Mn1251   2.212       .  S
N1234      C1241   1.344       .  A
N1235      N1236   1.321       .  A
N1235     Mn1239   2.189       .  S
N1236      C1241   1.345       .  A
N1237      N1238   1.326       .  A
N1237     Mn1251   2.229       .  S
N1238      C1240   1.357       .  A
Mn1239    Cl1252   2.526       .  S
C1240      C1349   1.424       .  S
C1241      C1355   1.425       .  S
N1242      N1248   1.313       .  A
N1244      N1245   1.340       .  A
N1244      N1246   1.316       .  A
N1244     Mn1251   2.274       .  S
N1245      C1254   1.368       .  A
N1246      N1247   1.318       .  A
N1247      C1254   1.354       .  A
N1248      N1249   1.331       .  A
N1248     Mn1251   2.240       .  S
N1249      C1253   1.364       .  A
Mn1251    Cl1252   2.582       .  S
C1253      C1357   1.449       .  S
N1255      N1256   1.311       .  A
N1255      N1261   1.319       .  A
N1255     Mn1284   2.181       .  S
N1256      C1263   1.339       .  A
N1257      N1259   1.321       .  A
N1257     Mn1273   2.235   1_455  S
N1258      C1264   1.354       .  A
N1259     Mn1284   2.164   1_455  S
N1260      C1264   1.339       .  A
N1261      N1262   1.324       .  A
N1261     Mn1273   2.194       .  S
N1262      C1263   1.352       .  A
C1263      C1356   1.422       .  S
C1264      C1365   1.436       .  S
N1265      N1271   1.314       .  A
N1265      N1266   1.316       .  A
N1265     Mn1295   2.156       .  S
N1266      C1274   1.341       .  A
N1267      N1268   1.331       .  A
N1267      N1269   1.315       .  A
N1267     Mn1273   2.268       .  S
N1268      C1275   1.367       .  A
N1269      N1270   1.321       .  A
N1270      C1275   1.349       .  A
N1271      N1272   1.323       .  A
N1272      C1274   1.356       .  A
Mn1273    Cl1297   2.577   1_655  S
C1274      C1348   1.427       .  S
N1276      N1277   1.319       .  A
N1276      N1282   1.315       .  A
N1277      C1285   1.349       .  A
N1278      N1280   1.314       .  A
N1278      N1279   1.322       .  A
N1279      C1286   1.356       .  A
N1280      N1281   1.317       .  A
N1280     Mn1284   2.163       .  S
N1281      C1286   1.342       .  A
N1282      N1283   1.332       .  A
N1282     Mn1296   2.267       .  S
N1283      C1285   1.367       .  A
Mn1284    Cl1297   2.489   1_655  S
C1286      C1346   1.429       .  S
N1287      N1293   1.320       .  A
N1287     Mn1295   2.166       .  S
N1288      C1298   1.340       .  A
N1289      N1290   1.325       .  A
N1289      N1291   1.319       .  A
N1289     Mn1296   2.197       .  S
N1290      C1299   1.353       .  A
N1291      N1292   1.310       .  A
N1291     Mn1295   2.177       .  S
N1292      C1299   1.338       .  A
N1293     Mn1296   2.230       .  S
N1294      C1298   1.354       .  A
C1298      C1367   1.433       .  S
C1299      C1354   1.422       .  S
N1300      N1301   1.334       .  A
N1300      N1306   1.316       .  A
N1300     Mn1329   2.261       .  S
N1301      C1308   1.363       .  A
N1302      N1304   1.316       .  A
N1302      N1303   1.314       .  A
N1302     Mn1318   2.155       .  S
N1303      C1309   1.338       .  A
N1304      N1305   1.323       .  A
N1304     Mn1785   2.216   1_545  S
N1305      C1309   1.356       .  A
N1306      N1307   1.320       .  A
N1306     Mn1774   2.201       .  S
N1307      C1308   1.352       .  A
C1309      C1351   1.423       .  S
N1310      N1316   1.317       .  A
N1310      N1311   1.324       .  A
N1310     Mn1340   2.203       .  S
N1311      C1319   1.355       .  A
N1312      N1313   1.320       .  A
N1312      N1314   1.320       .  A
N1312     Mn1774   2.177       .  S
N1313      C1320   1.345       .  A
N1314      N1315   1.319       .  A
N1314     Mn1796   2.219       .  S
N1315      C1320   1.350       .  A
N1316      N1317   1.312       .  A
N1316     Mn1318   2.182       .  S
N1317      C1319   1.341       .  A
Mn1318     N1762   2.202   1_545  S
Mn1318     N1768   2.178   1_545  S
Mn1318    Cl1342   2.514       .  S
C1319      C1345   1.424       .  S
C1320      C1363   1.431       .  S
N1321      N1322   1.323       .  A
N1321      N1327   1.321       .  A
N1321     Mn1785   2.233   1_545  S
N1322      C1330   1.353       .  A
N1323      N1325   1.318       .  A
N1323      N1324   1.311       .  A
N1323     Mn1341   2.183       .  S
N1324      C1331   1.340       .  A
N1325      N1326   1.324       .  A
N1325     Mn1329   2.205       .  S
N1326      C1331   1.356       .  A
N1327      N1328   1.321       .  A
N1327     Mn1797   2.177       .  S
N1328      C1330   1.344       .  A
Mn1329     N1760   2.216       .  S
Mn1329     N1777   2.234       .  S
Mn1329    Cl1798   2.573       .  S
C1330      C1362   1.441       .  S
C1331      C1347   1.422       .  S
N1332      N1333   1.324       .  A
N1332      N1338   1.314       .  A
N1332     Mn1796   2.214       .  S
N1333      C1343   1.357       .  A
N1334      N1335   1.323       .  A
N1334      N1336   1.316       .  A
N1334     Mn1797   2.214       .  S
N1335      C1344   1.355       .  A
N1336      N1337   1.330       .  A
N1336     Mn1340   2.251       .  S
N1337      C1344   1.361       .  A
N1338      N1339   1.316       .  A
N1338     Mn1341   2.161       .  S
N1339      C1343   1.341       .  A
Mn1340     N1770   2.219   1_545  S
Mn1340     N1788   2.214   1_545  S
Mn1340    Cl1342   2.569       .  S
Mn1341     N1783   2.176       .  S
Mn1341     N1790   2.215       .  S
Mn1341    Cl1798   2.514       .  S
Cl1342    Mn1785   2.573   1_545  S
Cl1342    Mn1797   2.513       .  S
C1343      C1350   1.430       .  S
C1345      C1346   1.201       .  T
C1347      C1348   1.200       .  T
C1349      C1350   1.202       .  T
C1351      C1352   1.197       .  T
C1353      C1354   1.200       .  T
C1355      C1356   1.199       .  T
C1361      C1818   1.208       .  T
C1362      C1817   1.208       .  T
C1363      C1820   1.203       .  T
C1364      C1819   1.203       .  T
C1369      C1370   1.536       .  S
C1369      C1375   1.529       .  S
C1369      C1373   1.548       .  S
C1369      C1503   1.531       .  S
C1370      H1377   1.087       .  S
C1370      C1371   1.363       .  D
C1371      C1372   1.561       .  S
C1371      C1413   1.498       .  S
C1372      C1376   1.568       .  S
C1372      C1374   1.562       .  S
C1372      H1378   1.110       .  S
C1373      H1379   1.087       .  S
C1373      C1374   1.375       .  D
C1374      C1446   1.513       .  S
C1375      H1380   1.086       .  S
C1375      C1376   1.369       .  D
C1376      C1536   1.501       .  S
C1381      C1382   1.531       .  S
C1381      C1387   1.524       .  S
C1381      C1385   1.534       .  S
C1381      C1423   1.528       .  S
C1382      H1389   1.085       .  S
C1382      C1383   1.372       .  D
C1383      C1384   1.574       .  S
C1383      C1482   1.523       .  S
C1384      C1388   1.569       .  S
C1384      C1386   1.564       .  S
C1384      H1390   1.110       .  S
C1385      H1391   1.087       .  S
C1385      C1386   1.369       .  D
C1386      C1572   1.497       .  S
C1387      H1392   1.087       .  S
C1387      C1388   1.367       .  D
C1388      C1513   1.494       .  S
N1393      N1394   1.310       .  A
N1393      N1399   1.319       .  A
N1394      C1401   1.336       .  A
N1395      N1396   1.311       .  A
N1395     Mn1411   2.165       .  S
N1397      N1398   1.326       .  A
N1397     Mn1422   2.227       .  S
N1398      C1402   1.359       .  A
N1399      N1400   1.330       .  A
N1400      C1401   1.362       .  A
C1401      C1589   1.435       .  S
C1402      C1596   1.428       .  S
N1403      N1409   1.317       .  A
N1403      N1632   1.326       .  A
N1404      N1631   1.326       .  A
N1404      C1640   1.354       .  A
N1405      N1406   1.325       .  A
N1405      N1407   1.318       .  A
N1406      C1413   1.355       .  A
N1407      N1408   1.330       .  A
N1407     Mn1661   2.241       .  S
N1408      C1413   1.358       .  A
N1409      N1410   1.323       .  A
N1409     Mn1411   2.209       .  S
N1410      C1412   1.350       .  A
Mn1411    Cl1435   2.539       .  S
C1412      N1632   1.354       .  A
C1412      C1586   1.452       .  S
N1414      N1415   1.324       .  A
N1414      N1420   1.316       .  A
N1414     Mn1650   2.225   1_554  S
N1415      C1423   1.357       .  A
N1416      N1646   1.314   1_554  A
N1416      N1417   1.321       .  A
N1416     Mn1434   2.197       .  S
N1417      C1424   1.350   1_554  A
N1418      N1644   1.314       .  A
N1418      N1419   1.325       .  A
N1419      C1652   1.353       .  A
N1420      N1421   1.326       .  A
N1421      C1423   1.356       .  A
Mn1422     N1642   2.225       .  S
C1424      N1647   1.353       .  A
C1424      C1587   1.447       .  S
N1425      N1426   1.328       .  A
N1425      N1431   1.319   1_655  A
N1425     Mn1433   2.238       .  S
N1426      C1436   1.362   1_655  A
N1427      N1428   1.326       .  A
N1427      N1429   1.318       .  A
N1428      C1437   1.355       .  A
N1429      N1430   1.312       .  A
N1430      C1437   1.340       .  A
Mn1433     N1635   2.241   1_554  S
C1436      C1594   1.429       .  S
C1437      C1592   1.428       .  S
N1438      N1439   1.331       .  A
N1438      N1444   1.317       .  A
N1438     Mn1695   2.240       .  S
N1439      C1446   1.360       .  A
N1440      N1670   1.313       .  A
N1440      N1441   1.329       .  A
N1440     Mn1456   2.235       .  S
N1441      C1447   1.361       .  A
N1442      N1668   1.313       .  A
N1442      N1443   1.316       .  A
N1442     Mn1467   2.175   1_556  S
N1443      C1675   1.344       .  A
N1444      N1445   1.328       .  A
N1444     Mn1456   2.244       .  S
N1445      C1446   1.358       .  A
C1447      N1671   1.344       .  A
C1447      C1588   1.445       .  S
N1448      N1454   1.322       .  A
N1448      N1449   1.321       .  A
N1448     Mn1478   2.180       .  S
N1449      C1457   1.344       .  A
N1450      N1451   1.324       .  A
N1450      N1452   1.318       .  A
N1450     Mn1456   2.209       .  S
N1451      C1458   1.355       .  A
N1452      N1453   1.310       .  A
N1452     Mn1478   2.166       .  S
N1453      C1458   1.338       .  A
N1454      N1455   1.317       .  A
N1454     Mn1456   2.207       .  S
N1455      C1457   1.345       .  A
Mn1456    Cl1708   2.570       .  S
C1457      C1581   1.427       .  S
C1458      C1580   1.417       .  S
N1459      N1460   1.310       .  A
N1459      N1465   1.322       .  A
N1459     Mn1467   2.178       .  S
N1460      C1468   1.338       .  A
N1461      N1463   1.325       .  A
N1461      N1462   1.316       .  A
N1461     Mn1479   2.212       .  S
N1462      C1469   1.344       .  A
N1463      N1464   1.322       .  A
N1463     Mn1467   2.189       .  S
N1464      C1469   1.346       .  A
N1465      N1466   1.326       .  A
N1465     Mn1479   2.228       .  S
N1466      C1468   1.357       .  A
Mn1467     N1666   2.240   1_554  S
Mn1467    Cl1480   2.526       .  S
C1468      C1577   1.424       .  S
C1469      C1583   1.425       .  S
N1470      N1699   1.316       .  A
N1470      N1476   1.313       .  A
N1470     Mn1706   2.174   1_554  S
N1471      N1698   1.316       .  A
N1471      C1709   1.343       .  A
N1472      N1473   1.340       .  A
N1472      N1474   1.316       .  A
N1472     Mn1479   2.274       .  S
N1473      C1482   1.368       .  A
N1474      N1475   1.318       .  A
N1474     Mn1706   2.211   1_554  S
N1475      C1482   1.354       .  A
N1476      N1477   1.330       .  A
N1476     Mn1479   2.238       .  S
N1477      C1481   1.363       .  A
Mn1478     N1698   2.174       .  S
Mn1478     N1702   2.210       .  S
Mn1478    Cl1708   2.511       .  S
Mn1479    Cl1480   2.582       .  S
Cl1480    Mn1684   2.570   1_554  S
Cl1480    Mn1706   2.511   1_554  S
C1481      N1699   1.343       .  A
C1481      C1585   1.449       .  S
N1483      N1484   1.311       .  A
N1483      N1489   1.319       .  A
N1483     Mn1512   2.181       .  S
N1484      C1491   1.339       .  A
N1485      N1487   1.321       .  A
N1485     Mn1501   2.233   1_455  S
N1486      C1492   1.354       .  A
N1487     Mn1512   2.164   1_455  S
N1488      C1492   1.339       .  A
N1489      N1490   1.324       .  A
N1489     Mn1501   2.194       .  S
N1490      C1491   1.352       .  A
C1491      C1584   1.422       .  S
C1492      C1593   1.436       .  S
N1493      N1499   1.314       .  A
N1493      N1494   1.316       .  A
N1493     Mn1523   2.157       .  S
N1494      C1502   1.341       .  A
N1495      N1496   1.331       .  A
N1495      N1497   1.315       .  A
N1495     Mn1501   2.267       .  S
N1496      C1503   1.366       .  A
N1497      N1498   1.321       .  A
N1498      C1503   1.349       .  A
N1499      N1500   1.323       .  A
N1500      C1502   1.356       .  A
Mn1501    Cl1525   2.577   1_655  S
C1502      C1576   1.428       .  S
N1504      N1505   1.319       .  A
N1504      N1510   1.315       .  A
N1505      C1513   1.350       .  A
N1506      N1508   1.314       .  A
N1506      N1507   1.322       .  A
N1507      C1514   1.356       .  A
N1508      N1509   1.317       .  A
N1508     Mn1512   2.164       .  S
N1509      C1514   1.342       .  A
N1510      N1511   1.332       .  A
N1510     Mn1524   2.267       .  S
N1511      C1513   1.367       .  A
Mn1512    Cl1525   2.489   1_655  S
C1514      C1574   1.430       .  S
N1515      N1521   1.320       .  A
N1515     Mn1523   2.166       .  S
N1516      C1526   1.340       .  A
N1517      N1518   1.325       .  A
N1517      N1519   1.319       .  A
N1517     Mn1524   2.197       .  S
N1518      C1527   1.353       .  A
N1519      N1520   1.310       .  A
N1519     Mn1523   2.178       .  S
N1520      C1527   1.338       .  A
N1521     Mn1524   2.230       .  S
N1522      C1526   1.354       .  A
C1526      C1595   1.433       .  S
C1527      C1582   1.422       .  S
N1528      N1529   1.334       .  A
N1528      N1534   1.316       .  A
N1528     Mn1557   2.261       .  S
N1529      C1536   1.363       .  A
N1530      N1532   1.316       .  A
N1530      N1531   1.314       .  A
N1530     Mn1546   2.154       .  S
N1531      C1537   1.338       .  A
N1532      N1533   1.323       .  A
N1533      C1537   1.356       .  A
N1534      N1535   1.320       .  A
N1535      C1536   1.352       .  A
C1537      C1579   1.423       .  S
N1538      N1544   1.317       .  A
N1538      N1539   1.324       .  A
N1538     Mn1568   2.203       .  S
N1539      C1547   1.355       .  A
N1540      N1541   1.320       .  A
N1540      N1542   1.320       .  A
N1541      C1548   1.345       .  A
N1542      N1543   1.319       .  A
N1543      C1548   1.350       .  A
N1544      N1545   1.312       .  A
N1544     Mn1546   2.182       .  S
N1545      C1547   1.342       .  A
Mn1546    Cl1570   2.514       .  S
C1547      C1573   1.425       .  S
C1548      C1591   1.431       .  S
N1549      N1550   1.323       .  A
N1549      N1555   1.321       .  A
N1550      C1558   1.352       .  A
N1551      N1553   1.318       .  A
N1551      N1552   1.311       .  A
N1551     Mn1569   2.181   1_565  S
N1552      C1559   1.340       .  A
N1553      N1554   1.324       .  A
N1553     Mn1557   2.206       .  S
N1554      C1559   1.356       .  A
N1555      N1556   1.321       .  A
N1556      C1558   1.344       .  A
C1558      C1590   1.441       .  S
C1559      C1575   1.422       .  S
N1560      N1561   1.324       .  A
N1560      N1566   1.313       .  A
N1561      C1571   1.356       .  A
N1562      N1563   1.323       .  A
N1562      N1564   1.316       .  A
N1563      C1572   1.355       .  A
N1564      N1565   1.330       .  A
N1564     Mn1568   2.251       .  S
N1565      C1572   1.361       .  A
N1566      N1567   1.316       .  A
N1566     Mn1569   2.160   1_565  S
N1567      C1571   1.341       .  A
Mn1568    Cl1570   2.568       .  S
C1571      C1578   1.430       .  S
C1573      C1574   1.201       .  T
C1575      C1576   1.200       .  T
C1577      C1578   1.202       .  T
C1579      C1580   1.197       .  T
C1581      C1582   1.200       .  T
C1583      C1584   1.199       .  T
C1585      C1814   1.215       .  T
C1586      C1813   1.215       .  T
C1587      C1816   1.212       .  T
C1588      C1815   1.212       .  T
C1597      C1598   1.536       .  S
C1597      C1603   1.529       .  S
C1597      C1601   1.548       .  S
C1597      C1731   1.531       .  S
C1598      H1605   1.087       .  S
C1598      C1599   1.363       .  D
C1599      C1600   1.561       .  S
C1599      C1641   1.498       .  S
C1600      C1604   1.568       .  S
C1600      C1602   1.562       .  S
C1600      H1606   1.110       .  S
C1601      H1607   1.087       .  S
C1601      C1602   1.375       .  D
C1602      C1674   1.513       .  S
C1603      H1608   1.086       .  S
C1603      C1604   1.369       .  D
C1604      C1764   1.501       .  S
C1609      C1610   1.531       .  S
C1609      C1615   1.524       .  S
C1609      C1613   1.534       .  S
C1609      C1651   1.528       .  S
C1610      H1617   1.085       .  S
C1610      C1611   1.372       .  D
C1611      C1612   1.574       .  S
C1611      C1710   1.522       .  S
C1612      C1616   1.569       .  S
C1612      C1614   1.564       .  S
C1612      H1618   1.110       .  S
C1613      H1619   1.087       .  S
C1613      C1614   1.369       .  D
C1614      C1800   1.497       .  S
C1615      H1620   1.087       .  S
C1615      C1616   1.367       .  D
C1616      C1741   1.493       .  S
N1621      N1622   1.310       .  A
N1621      N1627   1.319       .  A
N1622      C1629   1.336       .  A
N1623      N1624   1.311       .  A
N1623     Mn1639   2.165       .  S
N1625      N1626   1.326       .  A
N1625     Mn1650   2.227       .  S
N1626      C1630   1.359       .  A
N1627      N1628   1.330       .  A
N1628      C1629   1.362       .  A
C1629      C1817   1.435       .  S
C1630      C1824   1.428       .  S
N1631      N1637   1.317   1_554  A
N1633      N1634   1.325       .  A
N1633      N1635   1.318       .  A
N1634      C1641   1.355       .  A
N1635      N1636   1.330       .  A
N1636      C1641   1.358       .  A
N1637      N1638   1.323       .  A
N1637     Mn1639   2.209       .  S
N1638      C1640   1.350   1_556  A
Mn1639    Cl1663   2.539   1_556  S
C1640      C1814   1.451       .  S
N1642      N1643   1.324       .  A
N1642      N1648   1.316       .  A
N1643      C1651   1.357       .  A
N1644      N1645   1.321       .  A
N1644     Mn1662   2.197       .  S
N1645      C1652   1.350       .  A
N1646      N1647   1.325       .  A
N1648      N1649   1.326       .  A
N1649      C1651   1.356       .  A
C1652      C1815   1.447       .  S
N1653      N1654   1.328       .  A
N1653      N1659   1.319   1_655  A
N1653     Mn1661   2.238       .  S
N1654      C1664   1.362   1_655  A
N1655      N1656   1.326       .  A
N1655      N1657   1.318       .  A
N1656      C1665   1.355       .  A
N1657      N1658   1.312       .  A
N1658      C1665   1.340       .  A
C1664      C1822   1.429       .  S
C1665      C1820   1.428       .  S
N1666      N1667   1.331       .  A
N1666      N1672   1.317       .  A
N1667      C1674   1.360       .  A
N1668      N1669   1.329       .  A
N1668     Mn1684   2.234       .  S
N1669      C1675   1.361       .  A
N1670      N1671   1.316       .  A
N1670     Mn1695   2.174       .  S
N1672      N1673   1.328       .  A
N1672     Mn1684   2.245       .  S
N1673      C1674   1.358       .  A
C1675      C1816   1.445       .  S
N1676      N1682   1.322       .  A
N1676      N1677   1.321       .  A
N1676     Mn1706   2.180       .  S
N1677      C1685   1.344       .  A
N1678      N1679   1.324       .  A
N1678      N1680   1.318       .  A
N1678     Mn1684   2.209       .  S
N1679      C1686   1.355       .  A
N1680      N1681   1.310       .  A
N1680     Mn1706   2.166       .  S
N1681      C1686   1.338       .  A
N1682      N1683   1.317       .  A
N1682     Mn1684   2.206       .  S
N1683      C1685   1.345       .  A
C1685      C1809   1.427       .  S
C1686      C1808   1.417       .  S
N1687      N1688   1.310       .  A
N1687      N1693   1.322       .  A
N1687     Mn1695   2.178       .  S
N1688      C1696   1.337       .  A
N1689      N1691   1.325       .  A
N1689      N1690   1.315       .  A
N1689     Mn1707   2.211       .  S
N1690      C1697   1.344       .  A
N1691      N1692   1.322       .  A
N1691     Mn1695   2.189       .  S
N1692      C1697   1.346       .  A
N1693      N1694   1.326       .  A
N1693     Mn1707   2.228       .  S
N1694      C1696   1.357       .  A
Mn1695    Cl1708   2.526       .  S
C1696      C1805   1.424       .  S
C1697      C1811   1.425       .  S
N1698      N1704   1.313       .  A
N1700      N1701   1.340       .  A
N1700      N1702   1.316       .  A
N1700     Mn1707   2.274       .  S
N1701      C1710   1.368       .  A
N1702      N1703   1.318       .  A
N1703      C1710   1.354       .  A
N1704      N1705   1.330       .  A
N1704     Mn1707   2.238       .  S
N1705      C1709   1.363       .  A
Mn1707    Cl1708   2.582       .  S
C1709      C1813   1.449       .  S
N1711      N1712   1.311       .  A
N1711      N1717   1.319       .  A
N1711     Mn1740   2.181       .  S
N1712      C1719   1.339       .  A
N1713      N1715   1.321       .  A
N1713     Mn1729   2.233   1_455  S
N1714      C1720   1.354       .  A
N1715     Mn1740   2.164   1_455  S
N1716      C1720   1.339       .  A
N1717      N1718   1.325       .  A
N1717     Mn1729   2.194       .  S
N1718      C1719   1.352       .  A
C1719      C1812   1.422       .  S
C1720      C1821   1.436       .  S
N1721      N1727   1.314       .  A
N1721      N1722   1.316       .  A
N1721     Mn1751   2.157       .  S
N1722      C1730   1.341       .  A
N1723      N1724   1.331       .  A
N1723      N1725   1.315       .  A
N1723     Mn1729   2.267       .  S
N1724      C1731   1.366       .  A
N1725      N1726   1.321       .  A
N1726      C1731   1.349       .  A
N1727      N1728   1.323       .  A
N1728      C1730   1.356       .  A
Mn1729    Cl1753   2.578   1_655  S
C1730      C1804   1.427       .  S
N1732      N1733   1.319       .  A
N1732      N1738   1.315       .  A
N1733      C1741   1.349       .  A
N1734      N1736   1.314       .  A
N1734      N1735   1.322       .  A
N1735      C1742   1.356       .  A
N1736      N1737   1.317       .  A
N1736     Mn1740   2.163       .  S
N1737      C1742   1.342       .  A
N1738      N1739   1.332       .  A
N1738     Mn1752   2.266       .  S
N1739      C1741   1.366       .  A
Mn1740    Cl1753   2.488   1_655  S
C1742      C1802   1.429       .  S
N1743      N1749   1.320       .  A
N1743     Mn1751   2.166       .  S
N1744      C1754   1.340       .  A
N1745      N1746   1.325       .  A
N1745      N1747   1.319       .  A
N1745     Mn1752   2.197       .  S
N1746      C1755   1.353       .  A
N1747      N1748   1.310       .  A
N1747     Mn1751   2.177       .  S
N1748      C1755   1.338       .  A
N1749     Mn1752   2.230       .  S
N1750      C1754   1.354       .  A
C1754      C1823   1.433       .  S
C1755      C1810   1.422       .  S
N1756      N1757   1.334       .  A
N1756      N1762   1.316       .  A
N1756     Mn1785   2.260       .  S
N1757      C1764   1.363       .  A
N1758      N1760   1.316       .  A
N1758      N1759   1.314       .  A
N1758     Mn1774   2.155       .  S
N1759      C1765   1.339       .  A
N1760      N1761   1.323       .  A
N1761      C1765   1.356       .  A
N1762      N1763   1.320       .  A
N1763      C1764   1.352       .  A
C1765      C1807   1.423       .  S
N1766      N1772   1.317       .  A
N1766      N1767   1.324       .  A
N1766     Mn1796   2.202       .  S
N1767      C1775   1.355       .  A
N1768      N1769   1.320       .  A
N1768      N1770   1.320       .  A
N1769      C1776   1.345       .  A
N1770      N1771   1.319       .  A
N1771      C1776   1.350       .  A
N1772      N1773   1.312       .  A
N1772     Mn1774   2.182       .  S
N1773      C1775   1.341       .  A
Mn1774    Cl1798   2.514       .  S
C1775      C1801   1.424       .  S
C1776      C1819   1.431       .  S
N1777      N1778   1.323       .  A
N1777      N1783   1.321       .  A
N1778      C1786   1.353       .  A
N1779      N1781   1.318       .  A
N1779      N1780   1.311       .  A
N1779     Mn1797   2.182   1_565  S
N1780      C1787   1.340       .  A
N1781      N1782   1.324       .  A
N1781     Mn1785   2.206       .  S
N1782      C1787   1.356       .  A
N1783      N1784   1.321       .  A
N1784      C1786   1.344       .  A
C1786      C1818   1.441       .  S
C1787      C1803   1.422       .  S
N1788      N1789   1.324       .  A
N1788      N1794   1.313       .  A
N1789      C1799   1.356       .  A
N1790      N1791   1.323       .  A
N1790      N1792   1.316       .  A
N1791      C1800   1.355       .  A
N1792      N1793   1.330       .  A
N1792     Mn1796   2.250       .  S
N1793      C1800   1.361       .  A
N1794      N1795   1.316       .  A
N1794     Mn1797   2.160   1_565  S
N1795      C1799   1.341       .  A
Mn1796    Cl1798   2.569       .  S
C1799      C1806   1.430       .  S
C1801      C1802   1.201       .  T
C1803      C1804   1.200       .  T
C1805      C1806   1.202       .  T
C1807      C1808   1.197       .  T
C1809      C1810   1.200       .  T
C1811      C1812   1.199       .  T
