geometry optimzed in LAMMPS
_audit_creation_date              2020-12-01 
_audit_creation_method            'lammps2cif' 
_symmetry_space_group_name_H-M    'P1' 
_symmetry_Int_Tables_number       1 
_symmetry_cell_setting            triclinic 
loop_ 
_symmetry_equiv_pos_as_xyz 
  x,y,z 
_cell_length_a                    52.74267627 
_cell_length_b                    52.74301780040719 
_cell_length_c                    32.09565805242892 
_cell_angle_alpha                 90.00113980243707 
_cell_angle_beta                  89.99846415827113 
_cell_angle_gamma                 120.03619207888646 
loop_ 
_atom_site_label 
_atom_site_type_symbol 
_atom_site_fract_x 
_atom_site_fract_y 
_atom_site_fract_z 
_atom_site_charge 
C1          C  0.25564795  0.37840947  0.16918689     0.79500
N2          N  0.25335422  0.39941194  0.14774626    -0.78800
C3          C  0.24748742  0.39643768  0.10625707     0.81900
N4          N  0.24383988  0.37225789  0.08594726    -0.78800
C5          C  0.24702052  0.35159691  0.10673237     0.82000
N6          N  0.25297464  0.35476163  0.14824361    -0.80500
C7          C  0.25650986  0.37880010  0.34963330     0.79500
N8          N  0.25411034  0.39975013  0.37102080    -0.78800
C9          C  0.24817787  0.39676994  0.41247294     0.81900
N10         N  0.24456448  0.37261595  0.43283908    -0.78800
C11         C  0.24785450  0.35199311  0.41211056     0.82000
N12         N  0.25387347  0.35517506  0.37060927    -0.80500
C13         C  0.10715328  0.37907975  0.34945302     0.79500
N14         N  0.08602145  0.35569922  0.37068566    -0.78800
C15         C  0.08889683  0.35263607  0.41219414     0.81900
N16         N  0.11302146  0.37309553  0.43270817    -0.78800
C17         C  0.13372247  0.39703863  0.41214855     0.82000
N18         N  0.13072248  0.39995347  0.37065450    -0.80500
C19         C  0.10740522  0.37870070  0.16879809     0.79500
N20         N  0.13097288  0.39957432  0.14760266    -0.78800
C21         C  0.13398600  0.39665854  0.10612114     0.81900
N22         N  0.11330689  0.37271533  0.08556146    -0.78800
C23         C  0.08919065  0.35224685  0.10607097     0.82000
N24         N  0.08628723  0.35530695  0.14757204    -0.80500
C25         C  0.10692383  0.22948784  0.16906010     0.79500
N26         N  0.08615960  0.23223221  0.14767827    -0.78800
C27         C  0.08917968  0.23811268  0.10618005     0.81900
N28         N  0.11312705  0.24127714  0.08579313    -0.78800
C29         C  0.13352079  0.23763184  0.10649415     0.82000
N30         N  0.13035190  0.23170556  0.14801824    -0.80500
C31         C  0.10661576  0.22888204  0.34967327     0.79500
N32         N  0.08592132  0.23173887  0.37103912    -0.78800
C33         C  0.08895245  0.23760549  0.41253043     0.81900
N34         N  0.11285918  0.24067462  0.43294078    -0.78800
C35         C  0.13319246  0.23692093  0.41224725     0.82000
N36         N  0.12999632  0.23099292  0.37072268    -0.80500
C37         C  0.37354117  0.11253203  0.34936969     0.79500
N38         N  0.34989004  0.09181853  0.37052519    -0.78800
C39         C  0.34653005  0.09513230  0.41172399     0.81900
N40         N  0.36698298  0.11934266  0.43207750    -0.78800
C41         C  0.39114975  0.13973933  0.41155110     0.82000
N42         N  0.39439374  0.13624446  0.37031780    -0.80500
C43         C  0.37358165  0.11218570  0.16944021     0.79500
N44         N  0.39440578  0.13592654  0.14849695    -0.78800
C45         C  0.39118761  0.13942804  0.10726246     0.81900
N46         N  0.36705487  0.11898044  0.08671920    -0.78800
C47         C  0.34662074  0.09472598  0.10704543     0.82000
N48         N  0.34995912  0.09141873  0.14826795    -0.80500
C49         C  0.37368568  0.26201291  0.16956899     0.79500
N50         N  0.35007830  0.25947082  0.14870558    -0.78800
C51         C  0.34656343  0.25289934  0.10740040     0.81900
N52         N  0.36686471  0.24902249  0.08677205    -0.78800
C53         C  0.39099260  0.25250657  0.10707079     0.82000
N54         N  0.39428511  0.25896626  0.14831812    -0.80500
C55         C  0.37316903  0.26139727  0.34940384     0.79500
N56         N  0.39380623  0.25843791  0.37066569    -0.78800
C57         C  0.39048434  0.25186696  0.41186024     0.81900
N58         N  0.36630087  0.24822672  0.43214003    -0.78800
C59         C  0.34596394  0.25205109  0.41153087     0.82000
N60         N  0.34948269  0.25870036  0.37023604    -0.80500
C61         C  0.22428273  0.11233488  0.34901973     0.79500
N62         N  0.22707021  0.13604472  0.36990442    -0.78800
C63         C  0.23404775  0.13972460  0.41109245     0.81900
N64         N  0.23806979  0.11947766  0.43159474    -0.78800
C65         C  0.23436957  0.09526300  0.41131897     0.82000
N66         N  0.22748914  0.09180031  0.37019182    -0.80500
C67         C  0.22299768  0.11150657  0.16918380     0.79500
N68         N  0.22649987  0.09114046  0.14806557    -0.78800
C69         C  0.23354667  0.09473544  0.10699776     0.81900
N70         N  0.23713768  0.11890883  0.08673226    -0.78800
C71         C  0.23280525  0.13896627  0.10720334     0.82000
N72         N  0.22565909  0.13515503  0.14830877    -0.80500
O73         O  0.26352733  0.31826451  0.09495610    -0.76000
O74         O  0.22636657  0.31521859  0.05466276    -0.55000
C75         C  0.24541069  0.32669097  0.08405334     0.77700
O76         O  0.31221631  0.26809907  0.42299502    -0.60600
O77         O  0.31024589  0.23189396  0.46437425    -0.53700
C78         C  0.32108817  0.25040595  0.43428519     0.69700
O79         O  0.26415818  0.31850536  0.42407583    -0.75200
O80         O  0.22676528  0.31539565  0.46388040    -0.55800
C81         C  0.24602680  0.32696402  0.43476001     0.75700
O82         O  0.31276723  0.26888173  0.09571360    -0.60300
O83         O  0.31019940  0.23192809  0.05544479    -0.53500
C84         C  0.32147349  0.25097462  0.08484425     0.72300
Zr85       Zr  0.27740923  0.28273388  0.07171157     2.54700
O86         O  0.32349570  0.32876747  0.06626883    -0.80900
O87         O  0.27850286  0.28329910  0.14758441    -0.94300
Zr88       Zr  0.27789233  0.28303194  0.44795638     2.64700
O89         O  0.32380804  0.32900617  0.45573226    -0.99300
O90         O  0.28041946  0.28604583  0.37226461    -0.81300
O91         O  0.26395850  0.29772290  0.00971903    -0.84700
O92         O  0.29255873  0.26935053  0.00993502    -2.19400
O93         O  0.21684181  0.17275616  0.09565696    -0.68100
O94         O  0.25360755  0.17522778  0.05507443    -0.52700
C95         C  0.23469113  0.16402299  0.08463909     0.70700
O96         O  0.16685132  0.22078260  0.42394372    -0.61000
O97         O  0.16967650  0.25794467  0.46401603    -0.53000
C98         C  0.15820860  0.23872784  0.43483532     0.72500
O99         O  0.21777462  0.17326330  0.42272664    -0.72400
O100        O  0.25426984  0.17564323  0.46383565    -0.51100
C101        C  0.23564896  0.16459722  0.43388140     0.73900
O102        O  0.16690642  0.22118554  0.09471183    -0.67700
O103        O  0.16977027  0.25826282  0.05440214    -0.54900
C104        C  0.15837514  0.23921152  0.08378744     0.72200
Zr105      Zr  0.20241831  0.20751091  0.07095076     2.77500
O106        O  0.15639487  0.16163231  0.06330261    -0.98500
O107        O  0.19961792  0.20504502  0.14665461    -0.79300
Zr108      Zr  0.20302425  0.20784471  0.44714004     2.70100
O109        O  0.15767547  0.16112926  0.45253502    -0.80500
O110        O  0.20154662  0.20794176  0.37128856    -0.99600
Zr111      Zr  0.21183140  0.27333533  0.00921238     2.21500
Zr112      Zr  0.26843934  0.21718172  0.00977289     2.11100
O113        O  0.21628212  0.19283541  0.00917898    -2.48300
O114        O  0.18777923  0.22122611  0.00892666    -0.80300
O115        O  0.25423467  0.23092490  0.07241899    -0.72500
O116        O  0.22614855  0.25956679  0.44659510    -2.33500
O117        O  0.22565661  0.25925639  0.07203479    -2.29700
O118        O  0.25481244  0.23123982  0.44688348    -0.74300
H119        H  0.31356629  0.27773102  0.01011654     0.77700
H120        H  0.21991451  0.26578330  0.42228235     0.78800
H121        H  0.20795874  0.17183258  0.00903063     0.81000
H122        H  0.21930045  0.26542461  0.09626359     0.78600
H123        H  0.26054195  0.27121560  0.36289528     0.41700
H124        H  0.22097951  0.21133757  0.36237931     0.40600
H125        H  0.14408452  0.16573603  0.46758235     0.40300
H126        H  0.16213594  0.14699555  0.05576787     0.38200
H127        H  0.21811717  0.22225977  0.15604089     0.41400
H128        H  0.25892155  0.27966198  0.15613492     0.36200
H129        H  0.31915920  0.34096843  0.04740292     0.42300
H130        H  0.33768804  0.32344739  0.46751975     0.38700
H131        H  0.14871008  0.15636285  0.09205460     0.43600
H132        H  0.29205621  0.30401106  0.15507914     0.42300
H133        H  0.33069924  0.33515074  0.42682212     0.42500
H134        H  0.18770711  0.18734949  0.36354646     0.42800
O135        O  0.03909005  0.31930025  0.42434923    -0.76000
O136        O  0.07341450  0.31602422  0.46381876    -0.55000
C137        C  0.06568678  0.32770363  0.43493505     0.77700
O138        O  0.44070324  0.26837167  0.09549778    -0.60600
O139        O  0.40636294  0.23197723  0.05449526    -0.53700
C140        C  0.41409842  0.25067975  0.08429882     0.69700
O141        O  0.03936648  0.31891734  0.09401605    -0.75200
O142        O  0.07365648  0.31598159  0.05401740    -0.55800
C143        C  0.06595679  0.32742406  0.08324409     0.75700
O144        O  0.44026550  0.26810968  0.42333127    -0.60300
O145        O  0.40611269  0.23157446  0.46441603    -0.53500
C146        C  0.41370699  0.25026179  0.43460954     0.72300
Zr147      Zr  0.48981620  0.28301684  0.44701696     2.54700
O148        O  0.48900215  0.32864645  0.45224583    -0.80900
O149        O  0.48952071  0.28382979  0.37109706    -0.94300
Zr150      Zr  0.49002338  0.28325626  0.07080975     2.64700
O151        O  0.48968164  0.32905465  0.06419103    -0.99300
O152        O  0.49069072  0.28655393  0.14646324    -0.81300
O153        O  0.01842094  0.29798955  0.00884624    -0.84700
O154        O  0.46154321  0.26959052  0.00902566    -2.19400
O155        O  0.44087128  0.17353214  0.42299840    -0.68100
O156        O  0.40660474  0.17563332  0.46411509    -0.52700
C157        C  0.41430499  0.16467775  0.43423799     0.70700
O158        O  0.03945722  0.22148607  0.09373726    -0.61000
O159        O  0.07374937  0.25924359  0.05440646    -0.53000
C160        C  0.06604432  0.23981399  0.08327048     0.72500
O161        O  0.44092250  0.17324971  0.09557797    -0.72400
O162        O  0.40657240  0.17563387  0.05505256    -0.51100
C163        C  0.41431808  0.16448440  0.08462292     0.73900
O164        O  0.03931242  0.22140105  0.42469827    -0.67700
O165        O  0.07369561  0.25890065  0.46425005    -0.54900
C166        C  0.06591368  0.23951225  0.43533467     0.72200
Zr167      Zr  0.49010360  0.20823199  0.44740851     2.77500
O168        O  0.48966347  0.16193367  0.45156444    -0.98500
O169        O  0.49122338  0.20824024  0.37161033    -0.79300
Zr170      Zr  0.49016158  0.20826625  0.07125374     2.70100
O171        O  0.48902695  0.16164912  0.06629845    -0.80500
O172        O  0.49206405  0.20860909  0.14706906    -0.99600
Zr173      Zr  0.04646118  0.27391351  0.00903680     2.21500
Zr174      Zr  0.43373704  0.21741211  0.00951977     2.11100
O175        O  0.46179571  0.19336253  0.00939635    -2.48300
O176        O  0.01861771  0.22178787  0.00927553    -0.80300
O177        O  0.46137844  0.23123502  0.44659091    -0.72500
O178        O  0.01846855  0.25998536  0.07175576    -2.33500
O179        O  0.01846555  0.25993289  0.44632291    -2.29700
O180        O  0.46154966  0.23143488  0.07230542    -0.74300
H181        H  0.44884912  0.27787995  0.00897038     0.77700
H182        H  0.03098547  0.26625450  0.09599783     0.78800
H183        H  0.44918067  0.17235478  0.00946824     0.81000
H184        H  0.03098469  0.26616578  0.42208276     0.78600
H185        H  0.99642027  0.27225498  0.15591121     0.41700
H186        H  0.47589590  0.21177133  0.15605349     0.40600
H187        H  0.00497465  0.16539025  0.04658766     0.40300
H188        H  0.47044219  0.14802426  0.46397354     0.38200
H189        H  0.48513402  0.22250100  0.36339042     0.41400
H190        H  0.00648989  0.28184988  0.36256496     0.36200
H191        H  0.00466729  0.34056871  0.47249761     0.42300
H192        H  0.47003211  0.32337687  0.05308985     0.38700
H193        H  0.48811940  0.15551645  0.42222321     0.43600
H194        H  0.49516162  0.30422726  0.36378505     0.42300
H195        H  0.48929580  0.33508398  0.09329201     0.42500
H196        H  0.48555492  0.18808633  0.15488792     0.42800
O197        O  0.26448798  0.44657474  0.42421637    -0.76000
O198        O  0.22731738  0.41231123  0.46436735    -0.55000
C199        C  0.24649855  0.41998818  0.43519593     0.77700
O200        O  0.31289031  0.04497678  0.09537480    -0.60600
O201        O  0.31070453  0.07930191  0.05452514    -0.53700
C202        C  0.32172096  0.07157317  0.08426574     0.69700
O203        O  0.26431456  0.44633406  0.09421721    -0.75200
O204        O  0.22713561  0.41222653  0.05392338    -0.55800
C205        C  0.24616627  0.41977914  0.08329818     0.75700
O206        O  0.31293016  0.04538298  0.42326451    -0.60300
O207        O  0.31055044  0.07957700  0.46417214    -0.53500
C208        C  0.32165688  0.07194173  0.43444500     0.72300
Zr209      Zr  0.27796331  0.49598790  0.44693146     2.54700
O210        O  0.32428861  0.49655985  0.45192137    -0.80900
O211        O  0.27954232  0.99725440  0.37108284    -0.94300
Zr212      Zr  0.27829130  0.49570073  0.07072522     2.64700
O213        O  0.32411964  0.49543569  0.06324836    -0.99300
O214        O  0.28094445  0.99526535  0.14638709    -0.81300
O215        O  0.26446185  0.46739058  0.00871274    -0.84700
O216        O  0.29313613  0.02427724  0.00895313    -2.19400
O217        O  0.21811572  0.04548281  0.42296146    -0.68100
O218        O  0.25457545  0.07963940  0.46409807    -0.52700
C219        C  0.23596757  0.07204523  0.43417051     0.70700
O220        O  0.16710654  0.44646062  0.09386632    -0.61000
O221        O  0.17055311  0.41221644  0.05445545    -0.53000
C222        C  0.15884902  0.41987896  0.08335902     0.72500
O223        O  0.21775258  0.04513833  0.09532151    -0.72400
O224        O  0.25440402  0.07949859  0.05466598    -0.51100
C225        C  0.23554872  0.07173268  0.08427697     0.73900
O226        O  0.16712034  0.44680334  0.42424027    -0.67700
O227        O  0.17023898  0.41247921  0.46392156    -0.54900
C228        C  0.15866528  0.42020474  0.43489381     0.72200
Zr229      Zr  0.20297292  0.49605594  0.44743344     2.77500
O230        O  0.15722382  0.49672118  0.45264863    -0.98500
O231        O  0.20123727  0.49574158  0.37163973    -0.79300
Zr232      Zr  0.20322318  0.49581216  0.07134973     2.70100
O233        O  0.15787771  0.49715761  0.06600015    -0.80500
O234        O  0.20113574  0.49419335  0.14720804    -0.99600
Zr235      Zr  0.21235808  0.43957734  0.00901891     2.21500
Zr236      Zr  0.26879115  0.05210975  0.00941588     2.11100
O237        O  0.21659218  0.02430945  0.00952093    -2.48300
O238        O  0.18815845  0.46747996  0.00931070    -0.80300
O239        O  0.25475166  0.02451883  0.44649560    -0.72500
O240        O  0.22650781  0.46737987  0.07195167    -2.33500
O241        O  0.22617849  0.46750518  0.44612562    -2.29700
O242        O  0.25505046  0.02426600  0.07220242    -0.74300
H243        H  0.31415861  0.03690795  0.00885311     0.77700
H244        H  0.22023529  0.45484966  0.09619820     0.78800
H245        H  0.20829080  0.03700430  0.00969175     0.81000
H246        H  0.21987125  0.45498864  0.42186461     0.78600
H247        H  0.26373386  0.49649213  0.15590771     0.41700
H248        H  0.22027674  0.01060669  0.15639158     0.40600
H249        H  0.14766760  0.48466364  0.04164281     0.40300
H250        H  0.16290974  0.01646573  0.46337434     0.38200
H251        H  0.22131230  0.00107371  0.36292139     0.41400
H252        H  0.26002759  0.48134321  0.36220395     0.36200
H253        H  0.31999185  0.47965868  0.46999848     0.42300
H254        H  0.33916280  0.01616369  0.05844354     0.38700
H255        H  0.15140106  0.49693763  0.42337912     0.43600
H256        H  0.29317191  0.49021483  0.36354719     0.42300
H257        H  0.32834203  0.49106259  0.09156849     0.42500
H258        H  0.18680282  0.50038101  0.15455825     0.42800
C259        C  0.22226517  0.08816727  0.28090787    -0.14100
C260        C  0.21979113  0.10977827  0.30320774     0.08000
C261        C  0.21517538  0.13008150  0.28093170    -0.14100
C262        C  0.21471560  0.12977694  0.23732142    -0.14100
C263        C  0.21891658  0.10920015  0.21505265     0.08000
C264        C  0.22181967  0.08787131  0.23741264    -0.14100
H265        H  0.22573059  0.07209374  0.29695370     0.12000
H266        H  0.21286732  0.14683057  0.29711261     0.12000
H267        H  0.21210947  0.14632991  0.22109380     0.12000
H268        H  0.22499602  0.07160738  0.22137587     0.12000
C269        C  0.39606523  0.26101685  0.23782672    -0.14100
C270        C  0.37586279  0.26570246  0.21546413     0.08000
C271        C  0.35644899  0.27167191  0.23767112    -0.14100
C272        C  0.35629425  0.27149728  0.28129401    -0.14100
C273        C  0.37555442  0.26535340  0.30356014     0.08000
C274        C  0.39591480  0.26084865  0.28128736    -0.14100
H275        H  0.41132620  0.25632192  0.22181992     0.12000
H276        H  0.34079774  0.27565421  0.22137913     0.12000
H277        H  0.34054047  0.27535978  0.29752147     0.12000
H278        H  0.41107627  0.25603906  0.29734896     0.12000
C279        C  0.35195010  0.08783838  0.28124465    -0.14100
C280        C  0.37544378  0.11026022  0.30350986     0.08000
C281        C  0.39968051  0.13165682  0.28117184    -0.14100
C282        C  0.39969172  0.13154460  0.23758783    -0.14100
C283        C  0.37546030  0.11004658  0.21533830     0.08000
C284        C  0.35195392  0.08773551  0.23771787    -0.14100
H285        H  0.33297259  0.07089460  0.29736007     0.12000
H286        H  0.41827418  0.14909912  0.29728933     0.12000
H287        H  0.41829830  0.14890850  0.22138430     0.12000
H288        H  0.33297672  0.07072847  0.22168296     0.12000
C289        C  0.08321370  0.22822549  0.23756731    -0.14100
C290        C  0.10493385  0.22597999  0.21515980     0.08000
C291        C  0.12578683  0.22225581  0.23751646    -0.14100
C292        C  0.12568258  0.22206607  0.28115297    -0.14100
C293        C  0.10473531  0.22561306  0.30354505     0.08000
C294        C  0.08311565  0.22804655  0.28115558    -0.14100
H295        H  0.06675297  0.23106704  0.22149754     0.12000
H296        H  0.14271007  0.22023850  0.22134756     0.12000
H297        H  0.14253555  0.21992120  0.29730770     0.12000
H298        H  0.06659022  0.23077072  0.29725078     0.12000
C299        C  0.12876389  0.40342378  0.28087682    -0.14100
C300        C  0.10558122  0.38074928  0.30330413     0.08000
C301        C  0.08188437  0.35861959  0.28092779    -0.14100
C302        C  0.08196103  0.35850027  0.23730027    -0.14100
C303        C  0.10572842  0.38051800  0.21490211     0.08000
C304        C  0.12883495  0.40331041  0.23727887    -0.14100
H305        H  0.14736364  0.42088580  0.29695537     0.12000
H306        H  0.06358154  0.34086588  0.29707796     0.12000
H307        H  0.06371298  0.34066530  0.22118382     0.12000
H308        H  0.14748055  0.42069898  0.22117479     0.12000
C309        C  0.26359498  0.35996346  0.23751053    -0.14100
C310        C  0.25927027  0.38046279  0.21522813     0.08000
C311        C  0.25656159  0.40189834  0.23764924    -0.14100
C312        C  0.25683892  0.40202965  0.28120795    -0.14100
C313        C  0.25981004  0.38071419  0.30354601     0.08000
C314        C  0.26386439  0.36008953  0.28114669    -0.14100
H315        H  0.26602430  0.34330309  0.22128227     0.12000
H316        H  0.25324344  0.41807217  0.22161883     0.12000
H317        H  0.25370942  0.41829559  0.29732529     0.12000
H318        H  0.26646645  0.34350965  0.29729970     0.12000
C319        C  0.25564796  0.37840946  0.66918686     0.79500
N320        N  0.25335421  0.39941194  0.64774626    -0.78800
C321        C  0.24748741  0.39643768  0.60625708     0.81900
N322        N  0.24383987  0.37225789  0.58594723    -0.78800
C323        C  0.24702052  0.35159691  0.60673234     0.82000
N324        N  0.25297466  0.35476163  0.64824356    -0.80500
C325        C  0.25650997  0.37880012  0.84963327     0.79500
N326        N  0.25411052  0.39975018  0.87102081    -0.78800
C327        C  0.24817800  0.39676996  0.91247293     0.81900
N328        N  0.24456456  0.37261593  0.93283904    -0.78800
C329        C  0.24785460  0.35199311  0.91211052     0.82000
N330        N  0.25387354  0.35517505  0.87060922    -0.80500
C331        C  0.10715328  0.37907975  0.84945305     0.79500
N332        N  0.08602146  0.35569922  0.87068569    -0.78800
C333        C  0.08889685  0.35263607  0.91219416     0.81900
N334        N  0.11302146  0.37309554  0.93270820    -0.78800
C335        C  0.13372247  0.39703864  0.91214858     0.82000
N336        N  0.13072248  0.39995347  0.87065453    -0.80500
C337        C  0.10740524  0.37870075  0.66879812     0.79500
N338        N  0.13097288  0.39957438  0.64760268    -0.78800
C339        C  0.13398601  0.39665857  0.60612117     0.81900
N340        N  0.11330690  0.37271534  0.58556150    -0.78800
C341        C  0.08919066  0.35224687  0.60607101     0.82000
N342        N  0.08628726  0.35530698  0.64757209    -0.80500
C343        C  0.10692386  0.22948788  0.66906005     0.79500
N344        N  0.08615961  0.23223223  0.64767823    -0.78800
C345        C  0.08917968  0.23811268  0.60618001     0.81900
N346        N  0.11312703  0.24127713  0.58579304    -0.78800
C347        C  0.13352077  0.23763183  0.60649406     0.82000
N348        N  0.13035190  0.23170556  0.64801817    -0.80500
C349        C  0.10661575  0.22888204  0.84967328     0.79500
N350        N  0.08592132  0.23173886  0.87103914    -0.78800
C351        C  0.08895245  0.23760548  0.91253045     0.81900
N352        N  0.11285919  0.24067461  0.93294079    -0.78800
C353        C  0.13319245  0.23692091  0.91224725     0.82000
N354        N  0.12999631  0.23099291  0.87072268    -0.80500
C355        C  0.37354115  0.11253209  0.84936971     0.79500
N356        N  0.34989002  0.09181856  0.87052519    -0.78800
C357        C  0.34652998  0.09513233  0.91172398     0.81900
N358        N  0.36698292  0.11934265  0.93207754    -0.78800
C359        C  0.39114969  0.13973933  0.91155115     0.82000
N360        N  0.39439366  0.13624454  0.87031783    -0.80500
C361        C  0.37358162  0.11218572  0.66944025     0.79500
N362        N  0.39440571  0.13592660  0.64849701    -0.78800
C363        C  0.39118759  0.13942806  0.60726249     0.81900
N364        N  0.36705490  0.11898043  0.58671921    -0.78800
C365        C  0.34662078  0.09472596  0.60704543     0.82000
N366        N  0.34995913  0.09141870  0.64826796    -0.80500
C367        C  0.37368565  0.26201289  0.66956899     0.79500
N368        N  0.35007828  0.25947081  0.64870557    -0.78800
C369        C  0.34656342  0.25289933  0.60740039     0.81900
N370        N  0.36686470  0.24902248  0.58677207    -0.78800
C371        C  0.39099259  0.25250654  0.60707082     0.82000
N372        N  0.39428509  0.25896625  0.64831814    -0.80500
C373        C  0.37316900  0.26139725  0.84940380     0.79500
N374        N  0.39380620  0.25843789  0.87066563    -0.78800
C375        C  0.39048432  0.25186693  0.91186017     0.81900
N376        N  0.36630089  0.24822672  0.93214000    -0.78800
C377        C  0.34596396  0.25205110  0.91153087     0.82000
N378        N  0.34948266  0.25870036  0.87023603    -0.80500
C379        C  0.22428273  0.11233486  0.84901972     0.79500
N380        N  0.22707022  0.13604470  0.86990443    -0.78800
C381        C  0.23404772  0.13972455  0.91109248     0.81900
N382        N  0.23806972  0.11947759  0.93159477    -0.78800
C383        C  0.23436954  0.09526295  0.91131898     0.82000
N384        N  0.22748914  0.09180029  0.87019181    -0.80500
C385        C  0.22299769  0.11150659  0.66918377     0.79500
N386        N  0.22649986  0.09114047  0.64806554    -0.78800
C387        C  0.23354665  0.09473545  0.60699774     0.81900
N388        N  0.23713767  0.11890884  0.58673224    -0.78800
C389        C  0.23280525  0.13896629  0.60720333     0.82000
N390        N  0.22565909  0.13515505  0.64830875    -0.80500
O391        O  0.26352733  0.31826451  0.59495612    -0.76000
O392        O  0.22636656  0.31521858  0.55466276    -0.55000
C393        C  0.24541069  0.32669097  0.58405333     0.77700
O394        O  0.31221646  0.26809917  0.92299514    -0.60600
O395        O  0.31024583  0.23189386  0.96437415    -0.53700
C396        C  0.32108821  0.25040596  0.93428522     0.69700
O397        O  0.26415848  0.31850553  0.92407587    -0.75200
O398        O  0.22676533  0.31539551  0.96388014    -0.55800
C399        C  0.24602697  0.32696404  0.93475993     0.75700
O400        O  0.31276720  0.26888170  0.59571362    -0.60300
O401        O  0.31019945  0.23192814  0.55544468    -0.53500
C402        C  0.32147349  0.25097462  0.58484421     0.72300
Zr403      Zr  0.27740924  0.28273389  0.57171160     2.54700
O404        O  0.32349573  0.32876743  0.56626865    -0.80900
O405        O  0.27850340  0.28329947  0.64758439    -0.94300
Zr406      Zr  0.27789227  0.28303183  0.94795623     2.64700
O407        O  0.32380778  0.32900614  0.95573256    -0.99300
O408        O  0.28041866  0.28604484  0.87226419    -0.81300
O409        O  0.26395851  0.29772295  0.50971914    -0.84700
O410        O  0.29255890  0.26935067  0.50993510    -2.19400
O411        O  0.21684175  0.17275613  0.59565694    -0.68100
O412        O  0.25360747  0.17522775  0.55507434    -0.52700
C413        C  0.23469108  0.16402298  0.58463905     0.70700
O414        O  0.16685130  0.22078256  0.92394372    -0.61000
O415        O  0.16967655  0.25794473  0.96401591    -0.53000
C416        C  0.15820861  0.23872783  0.93483528     0.72500
O417        O  0.21777470  0.17326336  0.92272651    -0.72400
O418        O  0.25426967  0.17564304  0.96383587    -0.51100
C419        C  0.23564892  0.16459716  0.93388145     0.73900
O420        O  0.16690642  0.22118555  0.59471185    -0.67700
O421        O  0.16977029  0.25826283  0.55440213    -0.54900
C422        C  0.15837514  0.23921152  0.58378741     0.72200
Zr423      Zr  0.20241834  0.20751095  0.57095078     2.77500
O424        O  0.15639492  0.16163254  0.56330248    -0.98500
O425        O  0.19961805  0.20504498  0.64665460    -0.79300
Zr426      Zr  0.20302425  0.20784470  0.94714006     2.70100
O427        O  0.15767531  0.16112941  0.95253445    -0.80500
O428        O  0.20154749  0.20794271  0.87128860    -0.99600
Zr429      Zr  0.21183141  0.27333533  0.50921233     2.21500
Zr430      Zr  0.26843936  0.21718178  0.50977287     2.11100
O431        O  0.21628213  0.19283542  0.50917900    -2.48300
O432        O  0.18777923  0.22122611  0.50892666    -0.80300
O433        O  0.25423468  0.23092491  0.57241901    -0.72500
O434        O  0.22614861  0.25956665  0.94659568    -2.33500
O435        O  0.22565661  0.25925640  0.57203481    -2.29700
O436        O  0.25481240  0.23123973  0.94688350    -0.74300
H437        H  0.31356651  0.27773123  0.51011663     0.77700
H438        H  0.21991453  0.26578317  0.92228323     0.78800
H439        H  0.20795875  0.17183259  0.50903065     0.81000
H440        H  0.21930045  0.26542461  0.59626362     0.78600
H441        H  0.26052885  0.27124522  0.86289632     0.41700
H442        H  0.22098223  0.21134332  0.86237993     0.40600
H443        H  0.14408455  0.16573611  0.96758247     0.40300
H444        H  0.16213598  0.14699573  0.55576785     0.38200
H445        H  0.21811938  0.22225721  0.65604081     0.41400
H446        H  0.25892196  0.27966193  0.65613496     0.36200
H447        H  0.31915918  0.34096840  0.54740280     0.42300
H448        H  0.33768796  0.32344734  0.96751940     0.38700
H449        H  0.14871017  0.15636310  0.59205455     0.43600
H450        H  0.29205641  0.30401156  0.65507903     0.42300
H451        H  0.33069886  0.33515115  0.92682246     0.42500
H452        H  0.18771169  0.18734966  0.86354561     0.42800
O453        O  0.03909009  0.31930026  0.92434924    -0.76000
O454        O  0.07341453  0.31602422  0.96381878    -0.55000
C455        C  0.06568681  0.32770362  0.93493507     0.77700
O456        O  0.44070323  0.26837162  0.59549780    -0.60600
O457        O  0.40636292  0.23197719  0.55449529    -0.53700
C458        C  0.41409840  0.25067970  0.58429887     0.69700
O459        O  0.03936648  0.31891734  0.59401608    -0.75200
O460        O  0.07365648  0.31598160  0.55401743    -0.55800
C461        C  0.06595679  0.32742407  0.58324413     0.75700
O462        O  0.44026547  0.26810964  0.92333125    -0.60300
O463        O  0.40611265  0.23157443  0.96441602    -0.53500
C464        C  0.41370696  0.25026174  0.93460950     0.72300
Zr465      Zr  0.48981618  0.28301685  0.94701686     2.54700
O466        O  0.48900199  0.32864641  0.95224587    -0.80900
O467        O  0.48952068  0.28382969  0.87109701    -0.94300
Zr468      Zr  0.49002340  0.28325625  0.57080977     2.64700
O469        O  0.48968186  0.32905463  0.56419059    -0.99300
O470        O  0.49069062  0.28655421  0.64646320    -0.81300
O471        O  0.01842095  0.29798957  0.50884625    -0.84700
O472        O  0.46154319  0.26959052  0.50902574    -2.19400
O473        O  0.44087122  0.17353220  0.92299821    -0.68100
O474        O  0.40660473  0.17563329  0.96411514    -0.52700
C475        C  0.41430494  0.16467775  0.93423797     0.70700
O476        O  0.03945722  0.22148608  0.59373728    -0.61000
O477        O  0.07374936  0.25924359  0.55440647    -0.53000
C478        C  0.06604432  0.23981399  0.58327048     0.72500
O479        O  0.44092252  0.17324970  0.59557807    -0.72400
O480        O  0.40657247  0.17563385  0.55505255    -0.51100
C481        C  0.41431812  0.16448440  0.58462296     0.73900
O482        O  0.03931246  0.22140108  0.92469829    -0.67700
O483        O  0.07369567  0.25890064  0.96425012    -0.54900
C484        C  0.06591372  0.23951225  0.93533471     0.72200
Zr485      Zr  0.49010358  0.20823199  0.94740838     2.77500
O486        O  0.48966347  0.16193368  0.95156411    -0.98500
O487        O  0.49122317  0.20824032  0.87161018    -0.79300
Zr488      Zr  0.49016157  0.20826626  0.57125379     2.70100
O489        O  0.48902693  0.16164912  0.56629850    -0.80500
O490        O  0.49206406  0.20860919  0.64706905    -0.99600
Zr491      Zr  0.04646117  0.27391352  0.50903682     2.21500
Zr492      Zr  0.43373704  0.21741211  0.50951979     2.11100
O493        O  0.46179569  0.19336252  0.50939643    -2.48300
O494        O  0.01861773  0.22178788  0.50927555    -0.80300
O495        O  0.46137844  0.23123502  0.94659089    -0.72500
O496        O  0.01846855  0.25998537  0.57175579    -2.33500
O497        O  0.01846556  0.25993289  0.94632288    -2.29700
O498        O  0.46154966  0.23143488  0.57230545    -0.74300
H499        H  0.44884911  0.27787996  0.50897046     0.77700
H500        H  0.03098547  0.26625450  0.59599786     0.78800
H501        H  0.44918067  0.17235477  0.50946829     0.81000
H502        H  0.03098473  0.26616580  0.92208277     0.78600
H503        H  0.99642011  0.27225537  0.65591132     0.41700
H504        H  0.47589585  0.21177136  0.65605352     0.40600
H505        H  0.00497447  0.16539014  0.54658790     0.40300
H506        H  0.47044232  0.14802434  0.96397363     0.38200
H507        H  0.48513364  0.22250095  0.86339043     0.41400
H508        H  0.00648985  0.28184962  0.86256500     0.36200
H509        H  0.00466729  0.34056880  0.97249736     0.42300
H510        H  0.47003217  0.32337680  0.55308985     0.38700
H511        H  0.48811905  0.15551629  0.92222292     0.43600
H512        H  0.49516182  0.30422724  0.86378506     0.42300
H513        H  0.48929627  0.33508413  0.59329161     0.42500
H514        H  0.48555492  0.18808641  0.65488787     0.42800
O515        O  0.26448802  0.44657476  0.92421638    -0.76000
O516        O  0.22731743  0.41231122  0.96436733    -0.55000
C517        C  0.24649863  0.41998819  0.93519595     0.77700
O518        O  0.31289032  0.04497678  0.59537483    -0.60600
O519        O  0.31070454  0.07930192  0.55452518    -0.53700
C520        C  0.32172098  0.07157317  0.58426576     0.69700
O521        O  0.26431456  0.44633406  0.59421724    -0.75200
O522        O  0.22713561  0.41222653  0.55392340    -0.55800
C523        C  0.24616626  0.41977914  0.58329820     0.75700
O524        O  0.31293015  0.04538301  0.92326453    -0.60300
O525        O  0.31055040  0.07957701  0.96417217    -0.53500
C526        C  0.32165682  0.07194174  0.93444499     0.72300
Zr527      Zr  0.27796331  0.49598790  0.94693147     2.54700
O528        O  0.32428860  0.49655987  0.95192138    -0.80900
O529        O  0.27954232  0.99725440  0.87108286    -0.94300
Zr530      Zr  0.27829130  0.49570073  0.57072523     2.64700
O531        O  0.32411964  0.49543569  0.56324839    -0.99300
O532        O  0.28094444  0.99526558  0.64638718    -0.81300
O533        O  0.26446185  0.46739059  0.50871275    -0.84700
O534        O  0.29313612  0.02427724  0.50895312    -2.19400
O535        O  0.21811570  0.04548277  0.92296149    -0.68100
O536        O  0.25457544  0.07963939  0.96409808    -0.52700
C537        C  0.23596756  0.07204520  0.93417053     0.70700
O538        O  0.16710655  0.44646063  0.59386634    -0.61000
O539        O  0.17055311  0.41221644  0.55445547    -0.53000
C540        C  0.15884902  0.41987897  0.58335904     0.72500
O541        O  0.21775259  0.04513833  0.59532154    -0.72400
O542        O  0.25440402  0.07949859  0.55466599    -0.51100
C543        C  0.23554871  0.07173268  0.58427697     0.73900
O544        O  0.16712034  0.44680334  0.92424030    -0.67700
O545        O  0.17023898  0.41247921  0.96392158    -0.54900
C546        C  0.15866527  0.42020474  0.93489384     0.72200
Zr547      Zr  0.20297291  0.49605593  0.94743343     2.77500
O548        O  0.15722377  0.49672108  0.95264828    -0.98500
O549        O  0.20123756  0.49574161  0.87163959    -0.79300
Zr550      Zr  0.20322314  0.49581215  0.57134970     2.70100
O551        O  0.15787758  0.49715756  0.56600011    -0.80500
O552        O  0.20113603  0.49419339  0.64720807    -0.99600
Zr553      Zr  0.21235807  0.43957735  0.50901891     2.21500
Zr554      Zr  0.26879118  0.05210978  0.50941587     2.11100
O555        O  0.21659220  0.02430950  0.50952105    -2.48300
O556        O  0.18815844  0.46747996  0.50931065    -0.80300
O557        O  0.25475166  0.02451877  0.94649561    -0.72500
O558        O  0.22650780  0.46737987  0.57195169    -2.33500
O559        O  0.22617855  0.46750530  0.94612586    -2.29700
O560        O  0.25505047  0.02426594  0.57220229    -0.74300
H561        H  0.31415861  0.03690796  0.50885303     0.77700
H562        H  0.22023528  0.45484966  0.59619822     0.78800
H563        H  0.20829081  0.03700434  0.50969182     0.81000
H564        H  0.21987134  0.45498880  0.92186495     0.78600
H565        H  0.26373309  0.49649083  0.65590775     0.41700
H566        H  0.22027659  0.01060637  0.65639160     0.40600
H567        H  0.14766715  0.48466314  0.54164331     0.40300
H568        H  0.16290985  0.01646586  0.96337409     0.38200
H569        H  0.22131271  0.00107401  0.86292123     0.41400
H570        H  0.26002759  0.48134321  0.86220398     0.36200
H571        H  0.31999195  0.47965898  0.96999906     0.42300
H572        H  0.33916276  0.01616369  0.55844276     0.38700
H573        H  0.15140132  0.49693804  0.92337872     0.43600
H574        H  0.29317190  0.49021483  0.86354722     0.42300
H575        H  0.32834203  0.49106259  0.59156852     0.42500
H576        H  0.18680273  0.50038053  0.65455834     0.42800
C577        C  0.22226507  0.08816721  0.78090780    -0.14100
C578        C  0.21979111  0.10977824  0.80320769     0.08000
C579        C  0.21517543  0.13008151  0.78093167    -0.14100
C580        C  0.21471570  0.12977699  0.73732140    -0.14100
C581        C  0.21891659  0.10920017  0.71505262     0.08000
C582        C  0.22181963  0.08787131  0.73741257    -0.14100
H583        H  0.22573042  0.07209361  0.79695361     0.12000
H584        H  0.21286741  0.14683063  0.79711257     0.12000
H585        H  0.21210966  0.14633006  0.72109378     0.12000
H586        H  0.22499599  0.07160738  0.72137574     0.12000
C587        C  0.39606518  0.26101681  0.73782670    -0.14100
C588        C  0.37586272  0.26570238  0.71546412     0.08000
C589        C  0.35644892  0.27167181  0.73767109    -0.14100
C590        C  0.35629415  0.27149714  0.78129399    -0.14100
C591        C  0.37555438  0.26535335  0.80356010     0.08000
C592        C  0.39591479  0.26084864  0.78128732    -0.14100
H593        H  0.41132620  0.25632191  0.72181984     0.12000
H594        H  0.34079769  0.27565413  0.72137914     0.12000
H595        H  0.34054031  0.27535953  0.79752145     0.12000
H596        H  0.41107627  0.25603904  0.79734888     0.12000
C597        C  0.35195012  0.08783847  0.78124472    -0.14100
C598        C  0.37544381  0.11026031  0.80350989     0.08000
C599        C  0.39968053  0.13165692  0.78117184    -0.14100
C600        C  0.39969175  0.13154464  0.73758782    -0.14100
C601        C  0.37546032  0.11004661  0.71533834     0.08000
C602        C  0.35195395  0.08773556  0.73771793    -0.14100
H603        H  0.33297263  0.07089474  0.79736014     0.12000
H604        H  0.41827421  0.14909926  0.79728932     0.12000
H605        H  0.41829833  0.14890852  0.72138427     0.12000
H606        H  0.33297675  0.07072850  0.72168305     0.12000
C607        C  0.08321374  0.22822555  0.73756730    -0.14100
C608        C  0.10493390  0.22598008  0.71515978     0.08000
C609        C  0.12578685  0.22225585  0.73751644    -0.14100
C610        C  0.12568258  0.22206609  0.78115296    -0.14100
C611        C  0.10473531  0.22561306  0.80354505     0.08000
C612        C  0.08311566  0.22804657  0.78115558    -0.14100
H613        H  0.06675302  0.23106712  0.72149752     0.12000
H614        H  0.14271007  0.22023851  0.72134753     0.12000
H615        H  0.14253557  0.21992124  0.79730770     0.12000
H616        H  0.06659025  0.23077078  0.79725079     0.12000
C617        C  0.12876389  0.40342381  0.78087687    -0.14100
C618        C  0.10558123  0.38074929  0.80330416     0.08000
C619        C  0.08188439  0.35861961  0.78092781    -0.14100
C620        C  0.08196108  0.35850030  0.73730029    -0.14100
C621        C  0.10572845  0.38051805  0.71490215     0.08000
C622        C  0.12883492  0.40331049  0.73727892    -0.14100
H623        H  0.14736365  0.42088584  0.79695544     0.12000
H624        H  0.06358156  0.34086588  0.79707796     0.12000
H625        H  0.06371304  0.34066529  0.72118384     0.12000
H626        H  0.14748050  0.42069914  0.72117485     0.12000
C627        C  0.26359484  0.35996337  0.73751055    -0.14100
C628        C  0.25927025  0.38046276  0.71522812     0.08000
C629        C  0.25656161  0.40189832  0.73764921    -0.14100
C630        C  0.25683895  0.40202965  0.78120792    -0.14100
C631        C  0.25981004  0.38071416  0.80354598     0.08000
C632        C  0.26386425  0.36008942  0.78114671    -0.14100
H633        H  0.26602411  0.34330293  0.72128228     0.12000
H634        H  0.25324353  0.41807221  0.72161881     0.12000
H635        H  0.25370953  0.41829566  0.79732528     0.12000
H636        H  0.26646625  0.34350954  0.79729971     0.12000
C637        C  0.25564791  0.87840945  0.16918685     0.79500
N638        N  0.25335416  0.89941192  0.14774624    -0.78800
C639        C  0.24748744  0.89643770  0.10625703     0.81900
N640        N  0.24383998  0.87225795  0.08594718    -0.78800
C641        C  0.24702060  0.85159697  0.10673231     0.82000
N642        N  0.25297469  0.85476166  0.14824355    -0.80500
C643        C  0.25650993  0.87880009  0.34963324     0.79500
N644        N  0.25411042  0.89975013  0.37102072    -0.78800
C645        C  0.24817787  0.89676993  0.41247281     0.81900
N646        N  0.24456449  0.87261595  0.43283900    -0.78800
C647        C  0.24785449  0.85199309  0.41211051     0.82000
N648        N  0.25387344  0.85517501  0.37060922    -0.80500
C649        C  0.10715327  0.87907979  0.34945309     0.79500
N650        N  0.08602145  0.85569927  0.37068575    -0.78800
C651        C  0.08889686  0.85263609  0.41219420     0.81900
N652        N  0.11302151  0.87309554  0.43270821    -0.78800
C653        C  0.13372249  0.89703867  0.41214858     0.82000
N654        N  0.13072247  0.89995352  0.37065455    -0.80500
C655        C  0.10740525  0.87870071  0.16879810     0.79500
N656        N  0.13097292  0.89957433  0.14760269    -0.78800
C657        C  0.13398599  0.89665858  0.10612114     0.81900
N658        N  0.11330690  0.87271535  0.08556146    -0.78800
C659        C  0.08919066  0.85224684  0.10607097     0.82000
N660        N  0.08628726  0.85530696  0.14757204    -0.80500
C661        C  0.10692384  0.72948786  0.16906012     0.79500
N662        N  0.08615957  0.73223213  0.14767828    -0.78800
C663        C  0.08917964  0.73811260  0.10618007     0.81900
N664        N  0.11312700  0.74127706  0.08579313    -0.78800
C665        C  0.13352078  0.73763182  0.10649414     0.82000
N666        N  0.13035195  0.73170563  0.14801827    -0.80500
C667        C  0.10661571  0.72888202  0.34967327     0.79500
N668        N  0.08592135  0.73173897  0.37103909    -0.78800
C669        C  0.08895249  0.73760562  0.41253039     0.81900
N670        N  0.11285922  0.74067472  0.43294074    -0.78800
C671        C  0.13319243  0.73692090  0.41224725     0.82000
N672        N  0.12999624  0.73099282  0.37072269    -0.80500
C673        C  0.37354113  0.61253204  0.34936968     0.79500
N674        N  0.34989001  0.59181852  0.37052516    -0.78800
C675        C  0.34653003  0.59513228  0.41172397     0.81900
N676        N  0.36698294  0.61934263  0.43207749    -0.78800
C677        C  0.39114972  0.63973930  0.41155112     0.82000
N678        N  0.39439371  0.63624446  0.37031781    -0.80500
C679        C  0.37358162  0.61218570  0.16944020     0.79500
N680        N  0.39440578  0.63592653  0.14849696    -0.78800
C681        C  0.39118761  0.63942807  0.10726248     0.81900
N682        N  0.36705487  0.61898049  0.08671919    -0.78800
C683        C  0.34662074  0.59472599  0.10704539     0.82000
N684        N  0.34995909  0.59141875  0.14826792    -0.80500
C685        C  0.37368560  0.76201285  0.16956897     0.79500
N686        N  0.35007822  0.75947075  0.14870555    -0.78800
C687        C  0.34656337  0.75289927  0.10740038     0.81900
N688        N  0.36686466  0.74902242  0.08677204    -0.78800
C689        C  0.39099257  0.75250652  0.10707079     0.82000
N690        N  0.39428505  0.75896621  0.14831812    -0.80500
C691        C  0.37316896  0.76139719  0.34940379     0.79500
N692        N  0.39380617  0.75843785  0.37066565    -0.78800
C693        C  0.39048430  0.75186691  0.41186020     0.81900
N694        N  0.36630083  0.74822667  0.43213999    -0.78800
C695        C  0.34596389  0.75205103  0.41153083     0.82000
N696        N  0.34948262  0.75870029  0.37023599    -0.80500
C697        C  0.22428277  0.61233483  0.34901968     0.79500
N698        N  0.22707025  0.63604468  0.36990437    -0.78800
C699        C  0.23404770  0.63972454  0.41109243     0.81900
N700        N  0.23806970  0.61947759  0.43159475    -0.78800
C701        C  0.23436955  0.59526295  0.41131897     0.82000
N702        N  0.22748919  0.59180028  0.37019180    -0.80500
C703        C  0.22299765  0.61150651  0.16918373     0.79500
N704        N  0.22649985  0.59114041  0.14806550    -0.78800
C705        C  0.23354667  0.59473542  0.10699773     0.81900
N706        N  0.23713766  0.61890879  0.08673220    -0.78800
C707        C  0.23280522  0.63896623  0.10720327     0.82000
N708        N  0.22565904  0.63515498  0.14830870    -0.80500
O709        O  0.26352735  0.81826454  0.09495605    -0.76000
O710        O  0.22636659  0.81521867  0.05466274    -0.55000
C711        C  0.24541072  0.82669102  0.08405331     0.77700
O712        O  0.31221627  0.76809897  0.42299501    -0.60600
O713        O  0.31024591  0.73189391  0.46437429    -0.53700
C714        C  0.32108814  0.75040587  0.43428518     0.69700
O715        O  0.26415832  0.81850545  0.42407591    -0.75200
O716        O  0.22676520  0.81539557  0.46388016    -0.55800
C717        C  0.24602683  0.82696402  0.43475994     0.75700
O718        O  0.31276723  0.76888175  0.09571353    -0.60300
O719        O  0.31019938  0.73192810  0.05544470    -0.53500
C720        C  0.32147346  0.75097461  0.08484418     0.72300
Zr721      Zr  0.27740919  0.78273386  0.07171155     2.54700
O722        O  0.32349566  0.82876742  0.06626884    -0.80900
O723        O  0.27850322  0.78329931  0.14758436    -0.94300
Zr724      Zr  0.27789235  0.78303192  0.44795638     2.64700
O725        O  0.32380792  0.82900618  0.45573225    -0.99300
O726        O  0.28041942  0.78604591  0.37226459    -0.81300
O727        O  0.26395857  0.79772301  0.00971903    -0.84700
O728        O  0.29255886  0.76935062  0.00993505    -2.19400
O729        O  0.21684175  0.67275611  0.09565691    -0.68100
O730        O  0.25360750  0.67522776  0.05507435    -0.52700
C731        C  0.23469108  0.66402296  0.08463902     0.70700
O732        O  0.16685129  0.72078256  0.42394369    -0.61000
O733        O  0.16967648  0.75794462  0.46401603    -0.53000
C734        C  0.15820856  0.73872779  0.43483532     0.72500
O735        O  0.21777455  0.67326326  0.42272667    -0.72400
O736        O  0.25426978  0.67564316  0.46383565    -0.51100
C737        C  0.23564889  0.66459716  0.43388140     0.73900
O738        O  0.16690638  0.72118549  0.09471185    -0.67700
O739        O  0.16977026  0.75826277  0.05440212    -0.54900
C740        C  0.15837511  0.73921147  0.08378743     0.72200
Zr741      Zr  0.20241829  0.70751094  0.07095077     2.77500
O742        O  0.15639489  0.66163250  0.06330208    -0.98500
O743        O  0.19961793  0.70504475  0.14665460    -0.79300
Zr744      Zr  0.20302426  0.70784477  0.44714005     2.70100
O745        O  0.15767543  0.66112941  0.45253541    -0.80500
O746        O  0.20154645  0.70794154  0.37128860    -0.99600
Zr747      Zr  0.21183144  0.77333541  0.00921233     2.21500
Zr748      Zr  0.26843935  0.71718176  0.00977283     2.11100
O749        O  0.21628222  0.69283572  0.00917898    -2.48300
O750        O  0.18777926  0.72122620  0.00892666    -0.80300
O751        O  0.25423463  0.73092486  0.07241898    -0.72500
O752        O  0.22614865  0.75956678  0.44659533    -2.33500
O753        O  0.22565656  0.75925645  0.07203488    -2.29700
O754        O  0.25481243  0.73123978  0.44688346    -0.74300
H755        H  0.31356646  0.77773116  0.01011662     0.77700
H756        H  0.21991465  0.76578324  0.42228262     0.78800
H757        H  0.20795890  0.67183300  0.00903063     0.81000
H758        H  0.21930044  0.76542474  0.09626371     0.78600
H759        H  0.26054408  0.77121040  0.36289503     0.41700
H760        H  0.22097901  0.71133641  0.36237925     0.40600
H761        H  0.14408447  0.66573625  0.46758253     0.40300
H762        H  0.16213596  0.64699569  0.05576739     0.38200
H763        H  0.21811752  0.72225905  0.15604093     0.41400
H764        H  0.25892184  0.77966196  0.15613493     0.36200
H765        H  0.31915923  0.84096828  0.04740262     0.42300
H766        H  0.33768798  0.82344740  0.46751964     0.38700
H767        H  0.14871007  0.65636296  0.09205411     0.43600
H768        H  0.29205636  0.80401136  0.15507903     0.42300
H769        H  0.33069914  0.83515078  0.42682207     0.42500
H770        H  0.18770629  0.68734937  0.36354677     0.42800
O771        O  0.03909008  0.81930028  0.42434922    -0.76000
O772        O  0.07341449  0.81602419  0.46381879    -0.55000
C773        C  0.06568680  0.82770363  0.43493509     0.77700
O774        O  0.44070330  0.76837175  0.09549776    -0.60600
O775        O  0.40636303  0.73197731  0.05449521    -0.53700
C776        C  0.41409846  0.75067980  0.08429881     0.69700
O777        O  0.03936646  0.81891730  0.09401606    -0.75200
O778        O  0.07365644  0.81598155  0.05401740    -0.55800
C779        C  0.06595677  0.82742403  0.08324409     0.75700
O780        O  0.44026550  0.76810978  0.42333127    -0.60300
O781        O  0.40611275  0.73157454  0.46441608    -0.53500
C782        C  0.41370700  0.75026184  0.43460955     0.72300
Zr783      Zr  0.48981623  0.78301690  0.44701694     2.54700
O784        O  0.48900217  0.82864651  0.45224624    -0.80900
O785        O  0.48952063  0.78382959  0.37109710    -0.94300
Zr786      Zr  0.49002345  0.78325623  0.07080977     2.64700
O787        O  0.48968190  0.82905464  0.06419107    -0.99300
O788        O  0.49069074  0.78655413  0.14646318    -0.81300
O789        O  0.01842090  0.79798952  0.00884627    -0.84700
O790        O  0.46154345  0.76959039  0.00902569    -2.19400
O791        O  0.44087124  0.67353219  0.42299835    -0.68100
O792        O  0.40660470  0.67563327  0.46411514    -0.52700
C793        C  0.41430495  0.66467773  0.43423800     0.70700
O794        O  0.03945721  0.72148603  0.09373721    -0.61000
O795        O  0.07374942  0.75924368  0.05440664    -0.53000
C796        C  0.06604432  0.73981398  0.08327054     0.72500
O797        O  0.44092251  0.67324979  0.09557825    -0.72400
O798        O  0.40657250  0.67563390  0.05505257    -0.51100
C799        C  0.41431813  0.66448446  0.08462303     0.73900
O800        O  0.03931244  0.72140108  0.42469828    -0.67700
O801        O  0.07369562  0.75890063  0.46425013    -0.54900
C802        C  0.06591370  0.73951229  0.43533466     0.72200
Zr803      Zr  0.49010357  0.70823196  0.44740850     2.77500
O804        O  0.48966330  0.66193355  0.45156452    -0.98500
O805        O  0.49122331  0.70824017  0.37161032    -0.79300
Zr806      Zr  0.49016152  0.70826620  0.07125380     2.70100
O807        O  0.48902684  0.66164905  0.06629820    -0.80500
O808        O  0.49206397  0.70860897  0.14706908    -0.99600
Zr809      Zr  0.04646115  0.77391347  0.00903684     2.21500
Zr810      Zr  0.43373709  0.71741210  0.00951975     2.11100
O811        O  0.46179565  0.69336243  0.00939641    -2.48300
O812        O  0.01861770  0.72178783  0.00927561    -0.80300
O813        O  0.46137849  0.73123509  0.44659090    -0.72500
O814        O  0.01846850  0.75998531  0.07175578    -2.33500
O815        O  0.01846559  0.75993295  0.44632281    -2.29700
O816        O  0.46154968  0.73143489  0.07230544    -0.74300
H817        H  0.44884940  0.77787976  0.00897047     0.77700
H818        H  0.03098541  0.76625444  0.09599784     0.78800
H819        H  0.44918060  0.67235468  0.00946826     0.81000
H820        H  0.03098478  0.76616591  0.42208266     0.78600
H821        H  0.99641975  0.77225508  0.15591131     0.41700
H822        H  0.47589585  0.71177124  0.15605351     0.40600
H823        H  0.00497458  0.66539018  0.04658790     0.40300
H824        H  0.47044202  0.64802414  0.46397360     0.38200
H825        H  0.48513395  0.72250093  0.36339042     0.41400
H826        H  0.00648995  0.78184985  0.36256499     0.36200
H827        H  0.00466742  0.84056882  0.47249719     0.42300
H828        H  0.47003238  0.82337685  0.05308978     0.38700
H829        H  0.48811928  0.65551637  0.42222331     0.43600
H830        H  0.49516152  0.80422707  0.36378502     0.42300
H831        H  0.48929591  0.83508391  0.09329209     0.42500
H832        H  0.48555482  0.68808620  0.15488790     0.42800
O833        O  0.26448796  0.94657475  0.42421631    -0.76000
O834        O  0.22731726  0.91231118  0.46436712    -0.55000
C835        C  0.24649849  0.91998817  0.43519576     0.77700
O836        O  0.31289027  0.54497675  0.09537481    -0.60600
O837        O  0.31070449  0.57930188  0.05452515    -0.53700
C838        C  0.32172094  0.57157315  0.08426572     0.69700
O839        O  0.26431453  0.94633407  0.09421718    -0.75200
O840        O  0.22713558  0.91222651  0.05392339    -0.55800
C841        C  0.24616625  0.91977914  0.08329816     0.75700
O842        O  0.31293011  0.54538298  0.42326457    -0.60300
O843        O  0.31055045  0.57957707  0.46417213    -0.53500
C844        C  0.32165684  0.57194174  0.43444499     0.72300
Zr845      Zr  0.27796335  0.99598793  0.44693146     2.54700
O846        O  0.32428856  0.99655977  0.45192141    -0.80900
O847        O  0.27954210  0.49725450  0.37108290    -0.94300
Zr848      Zr  0.27829135  0.99570077  0.07072521     2.64700
O849        O  0.32411955  0.99543548  0.06324884    -0.99300
O850        O  0.28094453  0.49526541  0.14638707    -0.81300
O851        O  0.26446186  0.96739059  0.00871275    -0.84700
O852        O  0.29313591  0.52427713  0.00895312    -2.19400
O853        O  0.21811571  0.54548280  0.42296154    -0.68100
O854        O  0.25457547  0.57963943  0.46409810    -0.52700
C855        C  0.23596756  0.57204522  0.43417056     0.70700
O856        O  0.16710658  0.94646068  0.09386628    -0.61000
O857        O  0.17055309  0.91221644  0.05445545    -0.53000
C858        C  0.15884901  0.91987899  0.08335900     0.72500
O859        O  0.21775255  0.54513830  0.09532150    -0.72400
O860        O  0.25440398  0.57949856  0.05466595    -0.51100
C861        C  0.23554869  0.57173264  0.08427694     0.73900
O862        O  0.16712033  0.94680338  0.42424027    -0.67700
O863        O  0.17023897  0.91247925  0.46392157    -0.54900
C864        C  0.15866528  0.92020478  0.43489382     0.72200
Zr865      Zr  0.20297291  0.99605598  0.44743347     2.77500
O866        O  0.15722389  0.99672140  0.45264868    -0.98500
O867        O  0.20123711  0.99574150  0.37163979    -0.79300
Zr868      Zr  0.20322325  0.99581220  0.07134966     2.70100
O869        O  0.15787770  0.99715753  0.06600012    -0.80500
O870        O  0.20113610  0.99419357  0.14720807    -0.99600
Zr871      Zr  0.21235807  0.93957733  0.00901888     2.21500
Zr872      Zr  0.26879112  0.55210976  0.00941588     2.11100
O873        O  0.21659214  0.52430943  0.00952102    -2.48300
O874        O  0.18815843  0.96747996  0.00931060    -0.80300
O875        O  0.25475168  0.52451884  0.44649557    -0.72500
O876        O  0.22650794  0.96738002  0.07195145    -2.33500
O877        O  0.22617860  0.96750535  0.44612583    -2.29700
O878        O  0.25505041  0.52426598  0.07220244    -0.74300
H879        H  0.31415831  0.53690784  0.00885306     0.77700
H880        H  0.22023551  0.95484992  0.09619798     0.78800
H881        H  0.20829074  0.53700426  0.00969174     0.81000
H882        H  0.21987145  0.95498892  0.42186483     0.78600
H883        H  0.26373353  0.99649163  0.15590771     0.41700
H884        H  0.22027649  0.51060633  0.15639153     0.40600
H885        H  0.14766744  0.98466332  0.04164305     0.40300
H886        H  0.16290966  0.51646551  0.46337430     0.38200
H887        H  0.22131254  0.50107415  0.36292134     0.41400
H888        H  0.26002773  0.98134331  0.36220392     0.36200
H889        H  0.31999181  0.97965876  0.46999885     0.42300
H890        H  0.33916286  0.51616392  0.05844302     0.38700
H891        H  0.15140112  0.99693781  0.42337919     0.43600
H892        H  0.29317194  0.99021451  0.36354722     0.42300
H893        H  0.32834187  0.99106234  0.09156901     0.42500
H894        H  0.18680299  0.00038096  0.15455828     0.42800
C895        C  0.22226526  0.58816725  0.28090777    -0.14100
C896        C  0.21979120  0.60977822  0.30320766     0.08000
C897        C  0.21517542  0.63008143  0.28093163    -0.14100
C898        C  0.21471577  0.62977696  0.23732136    -0.14100
C899        C  0.21891664  0.60920014  0.21505258     0.08000
C900        C  0.22181967  0.58787127  0.23741255    -0.14100
H901        H  0.22573071  0.57209371  0.29695356     0.12000
H902        H  0.21286727  0.64683047  0.29711255     0.12000
H903        H  0.21210971  0.64633000  0.22109374     0.12000
H904        H  0.22499593  0.57160725  0.22137572     0.12000
C905        C  0.39606524  0.76101693  0.23782665    -0.14100
C906        C  0.37586273  0.76570244  0.21546409     0.08000
C907        C  0.35644891  0.77167184  0.23767109    -0.14100
C908        C  0.35629421  0.77149722  0.28129398    -0.14100
C909        C  0.37555436  0.76535332  0.30356008     0.08000
C910        C  0.39591476  0.76084862  0.28128728    -0.14100
H911        H  0.41132630  0.75632212  0.22181979     0.12000
H912        H  0.34079763  0.77565412  0.22137914     0.12000
H913        H  0.34054041  0.77535972  0.29752146     0.12000
H914        H  0.41107622  0.75603900  0.29734883     0.12000
C915        C  0.35195005  0.58783840  0.28124469    -0.14100
C916        C  0.37544374  0.61026024  0.30350986     0.08000
C917        C  0.39968047  0.63165686  0.28117180    -0.14100
C918        C  0.39969170  0.63154459  0.23758779    -0.14100
C919        C  0.37546028  0.61004656  0.21533830     0.08000
C920        C  0.35195389  0.58773549  0.23771790    -0.14100
H921        H  0.33297257  0.57089467  0.29736008     0.12000
H922        H  0.41827415  0.64909920  0.29728929     0.12000
H923        H  0.41829825  0.64890847  0.22138425     0.12000
H924        H  0.33297670  0.57072844  0.22168300     0.12000
C925        C  0.08321369  0.72822548  0.23756732    -0.14100
C926        C  0.10493387  0.72598003  0.21515980     0.08000
C927        C  0.12578682  0.72225580  0.23751647    -0.14100
C928        C  0.12568254  0.72206602  0.28115299    -0.14100
C929        C  0.10473525  0.72561299  0.30354506     0.08000
C930        C  0.08311558  0.72804648  0.28115558    -0.14100
H931        H  0.06675293  0.73106704  0.22149753     0.12000
H932        H  0.14271004  0.72023852  0.22134758     0.12000
H933        H  0.14253551  0.71992121  0.29730769     0.12000
H934        H  0.06659013  0.73077065  0.29725077     0.12000
C935        C  0.12876387  0.90342378  0.28087686    -0.14100
C936        C  0.10558119  0.88074929  0.30330418     0.08000
C937        C  0.08188432  0.85861960  0.28092786    -0.14100
C938        C  0.08196103  0.85850027  0.23730032    -0.14100
C939        C  0.10572841  0.88051801  0.21490214     0.08000
C940        C  0.12883489  0.90331043  0.23727891    -0.14100
H941        H  0.14736363  0.92088578  0.29695542     0.12000
H942        H  0.06358151  0.84086593  0.29707803     0.12000
H943        H  0.06371301  0.84066525  0.22118385     0.12000
H944        H  0.14748047  0.92069904  0.22117483     0.12000
C945        C  0.26359490  0.85996340  0.23751048    -0.14100
C946        C  0.25927021  0.88046274  0.21522809     0.08000
C947        C  0.25656152  0.90189828  0.23764919    -0.14100
C948        C  0.25683888  0.90202961  0.28120791    -0.14100
C949        C  0.25981007  0.88071417  0.30354596     0.08000
C950        C  0.26386434  0.86008949  0.28114664    -0.14100
H951        H  0.26602420  0.84330302  0.22128223     0.12000
H952        H  0.25324335  0.91807209  0.22161878     0.12000
H953        H  0.25370936  0.91829553  0.29732524     0.12000
H954        H  0.26646639  0.84350961  0.29729967     0.12000
C955        C  0.25564788  0.87840940  0.66918686     0.79500
N956        N  0.25335420  0.89941190  0.64774624    -0.78800
C957        C  0.24748756  0.89643774  0.60625701     0.81900
N958        N  0.24384005  0.87225798  0.58594715    -0.78800
C959        C  0.24702058  0.85159694  0.60673230     0.82000
N960        N  0.25297461  0.85476159  0.64824356    -0.80500
C961        C  0.25650993  0.87880009  0.84963325     0.79500
N962        N  0.25411046  0.89975014  0.87102075    -0.78800
C963        C  0.24817797  0.89676995  0.91247286     0.81900
N964        N  0.24456453  0.87261593  0.93283901    -0.78800
C965        C  0.24785448  0.85199305  0.91211048     0.82000
N966        N  0.25387344  0.85517499  0.87060919    -0.80500
C967        C  0.10715326  0.87907978  0.84945306     0.79500
N968        N  0.08602145  0.85569926  0.87068572    -0.78800
C969        C  0.08889686  0.85263608  0.91219417     0.81900
N970        N  0.11302149  0.87309554  0.93270819    -0.78800
C971        C  0.13372247  0.89703865  0.91214858     0.82000
N972        N  0.13072246  0.89995351  0.87065454    -0.80500
C973        C  0.10740524  0.87870071  0.66879812     0.79500
N974        N  0.13097291  0.89957433  0.64760272    -0.78800
C975        C  0.13398600  0.89665859  0.60612117     0.81900
N976        N  0.11330690  0.87271536  0.58556149    -0.78800
C977        C  0.08919068  0.85224685  0.60607100     0.82000
N978        N  0.08628726  0.85530696  0.64757206    -0.80500
C979        C  0.10692381  0.72948787  0.66906005     0.79500
N980        N  0.08615954  0.73223215  0.64767822    -0.78800
C981        C  0.08917962  0.73811261  0.60618000     0.81900
N982        N  0.11312696  0.74127705  0.58579304    -0.78800
C983        C  0.13352072  0.73763180  0.60649406     0.82000
N984        N  0.13035190  0.73170562  0.64801819    -0.80500
C985        C  0.10661573  0.72888206  0.84967328     0.79500
N986        N  0.08592134  0.73173896  0.87103913    -0.78800
C987        C  0.08895249  0.73760561  0.91253042     0.81900
N988        N  0.11285924  0.74067475  0.93294077    -0.78800
C989        C  0.13319251  0.73692105  0.91224722     0.82000
N990        N  0.12999633  0.73099300  0.87072267    -0.80500
C991        C  0.37354112  0.61253203  0.84936971     0.79500
N992        N  0.34989000  0.59181851  0.87052520    -0.78800
C993        C  0.34653002  0.59513228  0.91172401     0.81900
N994        N  0.36698294  0.61934263  0.93207752    -0.78800
C995        C  0.39114971  0.63973929  0.91155113     0.82000
N996        N  0.39439370  0.63624445  0.87031783    -0.80500
C997        C  0.37358160  0.61218566  0.66944023     0.79500
N998        N  0.39440574  0.63592651  0.64849698    -0.78800
C999        C  0.39118759  0.63942803  0.60726248     0.81900
N1000       N  0.36705486  0.61898042  0.58671922    -0.78800
C1001       C  0.34662073  0.59472593  0.60704544     0.82000
N1002       N  0.34995908  0.59141868  0.64826797    -0.80500
C1003       C  0.37368561  0.76201285  0.66956895     0.79500
N1004       N  0.35007823  0.75947076  0.64870555    -0.78800
C1005       C  0.34656337  0.75289929  0.60740038     0.81900
N1006       N  0.36686464  0.74902243  0.58677202    -0.78800
C1007       C  0.39099257  0.75250653  0.60707072     0.82000
N1008       N  0.39428507  0.75896622  0.64831807    -0.80500
C1009       C  0.37316895  0.76139718  0.84940378     0.79500
N1010       N  0.39380616  0.75843782  0.87066562    -0.78800
C1011       C  0.39048432  0.75186695  0.91186019     0.81900
N1012       N  0.36630090  0.74822681  0.93214002    -0.78800
C1013       C  0.34596392  0.75205108  0.91153083     0.82000
N1014       N  0.34948262  0.75870028  0.87023598    -0.80500
C1015       C  0.22428272  0.61233483  0.84901971     0.79500
N1016       N  0.22707026  0.63604470  0.86990439    -0.78800
C1017       C  0.23404771  0.63972455  0.91109244     0.81900
N1018       N  0.23806971  0.61947760  0.93159477    -0.78800
C1019       C  0.23436951  0.59526294  0.91131900     0.82000
N1020       N  0.22748907  0.59180024  0.87019185    -0.80500
C1021       C  0.22299765  0.61150651  0.66918376     0.79500
N1022       N  0.22649984  0.59114041  0.64806553    -0.78800
C1023       C  0.23354667  0.59473542  0.60699776     0.81900
N1024       N  0.23713765  0.61890879  0.58673224    -0.78800
C1025       C  0.23280519  0.63896621  0.60720331     0.82000
N1026       N  0.22565903  0.63515497  0.64830874    -0.80500
O1027       O  0.26352735  0.81826454  0.59495608    -0.76000
O1028       O  0.22636658  0.81521866  0.55466276    -0.55000
C1029       C  0.24541071  0.82669101  0.58405332     0.77700
O1030       O  0.31221625  0.76809894  0.92299484    -0.60600
O1031       O  0.31024593  0.73189396  0.96437428    -0.53700
C1032       C  0.32108816  0.75040589  0.93428513     0.69700
O1033       O  0.26415826  0.81850536  0.92407578    -0.75200
O1034       O  0.22676529  0.81539559  0.96388024    -0.55800
C1035       C  0.24602684  0.82696398  0.93475991     0.75700
O1036       O  0.31276725  0.76888180  0.59571357    -0.60300
O1037       O  0.31019939  0.73192815  0.55544473    -0.53500
C1038       C  0.32147348  0.75097466  0.58484419     0.72300
Zr1039     Zr  0.27740920  0.78273388  0.57171159     2.54700
O1040       O  0.32349565  0.82876742  0.56626857    -0.80900
O1041       O  0.27850323  0.78329936  0.64758439    -0.94300
Zr1042     Zr  0.27789234  0.78303188  0.94795627     2.64700
O1043       O  0.32380793  0.82900615  0.95573222    -0.99300
O1044       O  0.28041925  0.78604566  0.87226444    -0.81300
O1045       O  0.26395856  0.79772303  0.50971911    -0.84700
O1046       O  0.29255886  0.76935060  0.50993513    -2.19400
O1047       O  0.21684177  0.67275615  0.59565693    -0.68100
O1048       O  0.25360743  0.67522767  0.55507430    -0.52700
C1049       C  0.23469105  0.66402294  0.58463903     0.70700
O1050       O  0.16685127  0.72078257  0.92394371    -0.61000
O1051       O  0.16967657  0.75794474  0.96401593    -0.53000
C1052       C  0.15820862  0.73872788  0.93483526     0.72500
O1053       O  0.21777458  0.67326327  0.92272651    -0.72400
O1054       O  0.25426973  0.67564315  0.96383566    -0.51100
C1055       C  0.23564888  0.66459716  0.93388136     0.73900
O1056       O  0.16690635  0.72118550  0.59471186    -0.67700
O1057       O  0.16977025  0.75826278  0.55440212    -0.54900
C1058       C  0.15837508  0.73921147  0.58378740     0.72200
Zr1059     Zr  0.20241833  0.70751102  0.57095080     2.77500
O1060       O  0.15639491  0.66163254  0.56330256    -0.98500
O1061       O  0.19961799  0.70504492  0.64665459    -0.79300
Zr1062     Zr  0.20302421  0.70784469  0.94714004     2.70100
O1063       O  0.15767545  0.66112930  0.95253506    -0.80500
O1064       O  0.20154634  0.70794148  0.87128863    -0.99600
Zr1065     Zr  0.21183143  0.77333543  0.50921233     2.21500
Zr1066     Zr  0.26843934  0.71718174  0.50977286     2.11100
O1067       O  0.21628222  0.69283577  0.50917900    -2.48300
O1068       O  0.18777927  0.72122624  0.50892667    -0.80300
O1069       O  0.25423466  0.73092488  0.57241902    -0.72500
O1070       O  0.22614861  0.75956671  0.94659533    -2.33500
O1071       O  0.22565660  0.75925649  0.57203482    -2.29700
O1072       O  0.25481238  0.73123975  0.94688345    -0.74300
H1073       H  0.31356647  0.77773116  0.51011667     0.77700
H1074       H  0.21991458  0.76578317  0.92228266     0.78800
H1075       H  0.20795886  0.67183304  0.50903066     0.81000
H1076       H  0.21930046  0.76542472  0.59626363     0.78600
H1077       H  0.26054210  0.77121459  0.86289518     0.41700
H1078       H  0.22097917  0.71133707  0.86237935     0.40600
H1079       H  0.14408446  0.66573619  0.96758207     0.40300
H1080       H  0.16213597  0.64699576  0.55576775     0.38200
H1081       H  0.21811860  0.72225801  0.65604087     0.41400
H1082       H  0.25892188  0.77966208  0.65613494     0.36200
H1083       H  0.31915919  0.84096824  0.54740234     0.42300
H1084       H  0.33768800  0.82344732  0.96751936     0.38700
H1085       H  0.14871019  0.65636303  0.59205463     0.43600
H1086       H  0.29205644  0.80401139  0.65507901     0.42300
H1087       H  0.33069908  0.83515091  0.92682207     0.42500
H1088       H  0.18770671  0.68734919  0.86354662     0.42800
O1089       O  0.03909009  0.81930029  0.92434921    -0.76000
O1090       O  0.07341449  0.81602420  0.96381879    -0.55000
C1091       C  0.06568681  0.82770364  0.93493507     0.77700
O1092       O  0.44070328  0.76837178  0.59549757    -0.60600
O1093       O  0.40636299  0.73197726  0.55449515    -0.53700
C1094       C  0.41409844  0.75067981  0.58429869     0.69700
O1095       O  0.03936652  0.81891734  0.59401605    -0.75200
O1096       O  0.07365651  0.81598153  0.55401747    -0.55800
C1097       C  0.06595683  0.82742404  0.58324412     0.75700
O1098       O  0.44026550  0.76810978  0.92333126    -0.60300
O1099       O  0.40611274  0.73157454  0.96441608    -0.53500
C1100       C  0.41370700  0.75026185  0.93460954     0.72300
Zr1101     Zr  0.48981623  0.78301690  0.94701684     2.54700
O1102       O  0.48900209  0.82864645  0.95224586    -0.80900
O1103       O  0.48952062  0.78382963  0.87109702    -0.94300
Zr1104     Zr  0.49002346  0.78325624  0.57080980     2.64700
O1105       O  0.48968179  0.82905459  0.56419070    -0.99300
O1106       O  0.49069059  0.78655406  0.64646325    -0.81300
O1107       O  0.01842095  0.79798956  0.50884625    -0.84700
O1108       O  0.46154343  0.76959038  0.50902575    -2.19400
O1109       O  0.44087125  0.67353224  0.92299822    -0.68100
O1110       O  0.40660472  0.67563326  0.96411515    -0.52700
C1111       C  0.41430496  0.66467774  0.93423796     0.70700
O1112       O  0.03945721  0.72148607  0.59373721    -0.61000
O1113       O  0.07374941  0.75924363  0.55440651    -0.53000
C1114       C  0.06604432  0.73981399  0.58327047     0.72500
O1115       O  0.44092250  0.67324975  0.59557811    -0.72400
O1116       O  0.40657246  0.67563390  0.55505258    -0.51100
C1117       C  0.41431810  0.66448443  0.58462298     0.73900
O1118       O  0.03931244  0.72140108  0.92469831    -0.67700
O1119       O  0.07369563  0.75890063  0.96425015    -0.54900
C1120       C  0.06591370  0.73951228  0.93533470     0.72200
Zr1121     Zr  0.49010360  0.70823198  0.94740851     2.77500
O1122       O  0.48966358  0.66193366  0.95156409    -0.98500
O1123       O  0.49122331  0.70824018  0.87161035    -0.79300
Zr1124     Zr  0.49016154  0.70826621  0.57125379     2.70100
O1125       O  0.48902692  0.66164907  0.56629813    -0.80500
O1126       O  0.49206398  0.70860896  0.64706910    -0.99600
Zr1127     Zr  0.04646115  0.77391347  0.50903684     2.21500
Zr1128     Zr  0.43373709  0.71741209  0.50951976     2.11100
O1129       O  0.46179566  0.69336244  0.50939642    -2.48300
O1130       O  0.01861769  0.72178782  0.50927562    -0.80300
O1131       O  0.46137850  0.73123509  0.94659088    -0.72500
O1132       O  0.01846849  0.75998533  0.57175580    -2.33500
O1133       O  0.01846559  0.75993294  0.94632281    -2.29700
O1134       O  0.46154968  0.73143489  0.57230546    -0.74300
H1135       H  0.44884939  0.77787977  0.50897053     0.77700
H1136       H  0.03098542  0.76625445  0.59599785     0.78800
H1137       H  0.44918060  0.67235469  0.50946829     0.81000
H1138       H  0.03098479  0.76616589  0.92208267     0.78600
H1139       H  0.99641968  0.77225525  0.65591132     0.41700
H1140       H  0.47589592  0.71177134  0.65605353     0.40600
H1141       H  0.00497440  0.66539007  0.54658813     0.40300
H1142       H  0.47044250  0.64802429  0.96397374     0.38200
H1143       H  0.48513395  0.72250093  0.86339045     0.41400
H1144       H  0.00648981  0.78184967  0.86256497     0.36200
H1145       H  0.00466723  0.84056867  0.97249766     0.42300
H1146       H  0.47003214  0.82337675  0.55308991     0.38700
H1147       H  0.48811908  0.65551627  0.92222289     0.43600
H1148       H  0.49516174  0.80422717  0.86378498     0.42300
H1149       H  0.48929625  0.83508414  0.59329167     0.42500
H1150       H  0.48555471  0.68808617  0.65488795     0.42800
O1151       O  0.26448801  0.94657475  0.92421634    -0.76000
O1152       O  0.22731731  0.91231118  0.96436713    -0.55000
C1153       C  0.24649856  0.91998817  0.93519582     0.77700
O1154       O  0.31289025  0.54497672  0.59537484    -0.60600
O1155       O  0.31070451  0.57930188  0.55452519    -0.53700
C1156       C  0.32172093  0.57157312  0.58426578     0.69700
O1157       O  0.26431457  0.94633412  0.59421727    -0.75200
O1158       O  0.22713571  0.91222655  0.55392335    -0.55800
C1159       C  0.24616635  0.91977919  0.58329818     0.75700
O1160       O  0.31293011  0.54538298  0.92326460    -0.60300
O1161       O  0.31055042  0.57957705  0.96417217    -0.53500
C1162       C  0.32165683  0.57194173  0.93444504     0.72300
Zr1163     Zr  0.27796342  0.99598794  0.94693148     2.54700
O1164       O  0.32428865  0.99655985  0.95192136    -0.80900
O1165       O  0.27954210  0.49725450  0.87108292    -0.94300
Zr1166     Zr  0.27829141  0.99570079  0.57072522     2.64700
O1167       O  0.32411957  0.99543549  0.56324848    -0.99300
O1168       O  0.28094448  0.49526542  0.64638713    -0.81300
O1169       O  0.26446185  0.96739060  0.50871274    -0.84700
O1170       O  0.29313613  0.52427723  0.50895313    -2.19400
O1171       O  0.21811570  0.54548280  0.92296157    -0.68100
O1172       O  0.25457545  0.57963945  0.96409810    -0.52700
C1173       C  0.23596755  0.57204522  0.93417057     0.70700
O1174       O  0.16710657  0.94646068  0.59386630    -0.61000
O1175       O  0.17055308  0.91221644  0.55445548    -0.53000
C1176       C  0.15884901  0.91987899  0.58335903     0.72500
O1177       O  0.21775254  0.54513830  0.59532152    -0.72400
O1178       O  0.25440400  0.57949854  0.55466596    -0.51100
C1179       C  0.23554870  0.57173263  0.58427695     0.73900
O1180       O  0.16712028  0.94680333  0.92424024    -0.67700
O1181       O  0.17023896  0.91247924  0.96392159    -0.54900
C1182       C  0.15866525  0.92020475  0.93489383     0.72200
Zr1183     Zr  0.20297289  0.99605592  0.94743332     2.77500
O1184       O  0.15722391  0.99672145  0.95264873    -0.98500
O1185       O  0.20123745  0.99574153  0.87163949    -0.79300
Zr1186     Zr  0.20322325  0.99581219  0.57134969     2.70100
O1187       O  0.15787770  0.99715753  0.56600015    -0.80500
O1188       O  0.20113591  0.99419328  0.64720802    -0.99600
Zr1189     Zr  0.21235807  0.93957733  0.50901890     2.21500
Zr1190     Zr  0.26879119  0.55210977  0.50941585     2.11100
O1191       O  0.21659220  0.52430946  0.50952103    -2.48300
O1192       O  0.18815843  0.96747996  0.50931066    -0.80300
O1193       O  0.25475166  0.52451883  0.94649559    -0.72500
O1194       O  0.22650800  0.96738004  0.57195148    -2.33500
O1195       O  0.22617872  0.96750547  0.94612605    -2.29700
O1196       O  0.25505040  0.52426594  0.57220231    -0.74300
H1197       H  0.31415862  0.53690798  0.50885308     0.77700
H1198       H  0.22023554  0.95484993  0.59619800     0.78800
H1199       H  0.20829080  0.53700429  0.50969178     0.81000
H1200       H  0.21987159  0.95498904  0.92186518     0.78600
H1201       H  0.26373366  0.99649209  0.65590771     0.41700
H1202       H  0.22027659  0.51060669  0.65639153     0.40600
H1203       H  0.14766744  0.98466332  0.54164308     0.40300
H1204       H  0.16290955  0.51646527  0.96337455     0.38200
H1205       H  0.22131282  0.50107418  0.86292128     0.41400
H1206       H  0.26002773  0.98134330  0.86220400     0.36200
H1207       H  0.31999190  0.97965892  0.96999903     0.42300
H1208       H  0.33916286  0.51616392  0.55844305     0.38700
H1209       H  0.15140097  0.99693761  0.92337928     0.43600
H1210       H  0.29317193  0.99021452  0.86354717     0.42300
H1211       H  0.32834209  0.99106268  0.59156875     0.42500
H1212       H  0.18680286  0.00038076  0.65455827     0.42800
C1213       C  0.22226515  0.58816720  0.78090783    -0.14100
C1214       C  0.21979115  0.60977822  0.80320769     0.08000
C1215       C  0.21517542  0.63008146  0.78093165    -0.14100
C1216       C  0.21471576  0.62977697  0.73732138    -0.14100
C1217       C  0.21891664  0.60920015  0.71505262     0.08000
C1218       C  0.22181963  0.58787126  0.73741260    -0.14100
H1219       H  0.22573054  0.57209365  0.79695362     0.12000
H1220       H  0.21286729  0.64683051  0.79711257     0.12000
H1221       H  0.21210971  0.64633002  0.72109375     0.12000
H1222       H  0.22499594  0.57160727  0.72137578     0.12000
C1223       C  0.39606524  0.76101693  0.73782666    -0.14100
C1224       C  0.37586273  0.76570244  0.71546409     0.08000
C1225       C  0.35644891  0.77167184  0.73767110    -0.14100
C1226       C  0.35629420  0.77149722  0.78129399    -0.14100
C1227       C  0.37555435  0.76535332  0.80356008     0.08000
C1228       C  0.39591475  0.76084862  0.78128729    -0.14100
H1229       H  0.41132630  0.75632212  0.72181980     0.12000
H1230       H  0.34079763  0.77565412  0.72137916     0.12000
H1231       H  0.34054040  0.77535972  0.79752148     0.12000
H1232       H  0.41107622  0.75603900  0.79734884     0.12000
C1233       C  0.35195006  0.58783841  0.78124471    -0.14100
C1234       C  0.37544375  0.61026025  0.80350989     0.08000
C1235       C  0.39968047  0.63165687  0.78117184    -0.14100
C1236       C  0.39969169  0.63154460  0.73758782    -0.14100
C1237       C  0.37546027  0.61004655  0.71533833     0.08000
C1238       C  0.35195388  0.58773549  0.73771793    -0.14100
H1239       H  0.33297257  0.57089468  0.79736015     0.12000
H1240       H  0.41827411  0.64909921  0.79728932     0.12000
H1241       H  0.41829823  0.64890847  0.72138426     0.12000
H1242       H  0.33297669  0.57072843  0.72168304     0.12000
C1243       C  0.08321375  0.72822561  0.73756732    -0.14100
C1244       C  0.10493389  0.72598011  0.71515978     0.08000
C1245       C  0.12578688  0.72225593  0.73751643    -0.14100
C1246       C  0.12568255  0.72206606  0.78115298    -0.14100
C1247       C  0.10473524  0.72561300  0.80354507     0.08000
C1248       C  0.08311561  0.72804654  0.78115559    -0.14100
H1249       H  0.06675303  0.73106723  0.72149754     0.12000
H1250       H  0.14271013  0.72023870  0.72134753     0.12000
H1251       H  0.14253549  0.71992120  0.79730772     0.12000
H1252       H  0.06659017  0.73077070  0.79725079     0.12000
C1253       C  0.12876383  0.90342378  0.78087686    -0.14100
C1254       C  0.10558118  0.88074926  0.80330416     0.08000
C1255       C  0.08188433  0.85861955  0.78092782    -0.14100
C1256       C  0.08196101  0.85850024  0.73730029    -0.14100
C1257       C  0.10572840  0.88051799  0.71490215     0.08000
C1258       C  0.12883488  0.90331043  0.73727892    -0.14100
H1259       H  0.14736355  0.92088582  0.79695542     0.12000
H1260       H  0.06358151  0.84086583  0.79707798     0.12000
H1261       H  0.06371298  0.84066523  0.72118383     0.12000
H1262       H  0.14748045  0.92069905  0.72117485     0.12000
C1263       C  0.26359488  0.85996339  0.73751052    -0.14100
C1264       C  0.25927019  0.88046272  0.71522812     0.08000
C1265       C  0.25656154  0.90189828  0.73764921    -0.14100
C1266       C  0.25683890  0.90202961  0.78120792    -0.14100
C1267       C  0.25981006  0.88071417  0.80354597     0.08000
C1268       C  0.26386433  0.86008950  0.78114667    -0.14100
H1269       H  0.26602415  0.84330297  0.72128227     0.12000
H1270       H  0.25324342  0.91807214  0.72161880     0.12000
H1271       H  0.25370942  0.91829559  0.79732526     0.12000
H1272       H  0.26646637  0.84350960  0.79729969     0.12000
C1273       C  0.75564799  0.37840946  0.16918686     0.79500
N1274       N  0.75335426  0.39941194  0.14774625    -0.78800
C1275       C  0.74748746  0.39643769  0.10625707     0.81900
N1276       N  0.74383991  0.37225789  0.08594724    -0.78800
C1277       C  0.74702052  0.35159690  0.10673236     0.82000
N1278       N  0.75297467  0.35476162  0.14824358    -0.80500
C1279       C  0.75650989  0.37880010  0.34963328     0.79500
N1280       N  0.75411038  0.39975013  0.37102081    -0.78800
C1281       C  0.74817790  0.39676993  0.41247294     0.81900
N1282       N  0.74456452  0.37261593  0.43283908    -0.78800
C1283       C  0.74785456  0.35199310  0.41211054     0.82000
N1284       N  0.75387351  0.35517506  0.37060925    -0.80500
C1285       C  0.60715330  0.37907973  0.34945302     0.79500
N1286       N  0.58602147  0.35569920  0.37068565    -0.78800
C1287       C  0.58889683  0.35263606  0.41219413     0.81900
N1288       N  0.61302145  0.37309553  0.43270817    -0.78800
C1289       C  0.63372245  0.39703865  0.41214857     0.82000
N1290       N  0.63072249  0.39995347  0.37065451    -0.80500
C1291       C  0.60740524  0.37870068  0.16879810     0.79500
N1292       N  0.63097290  0.39957430  0.14760268    -0.78800
C1293       C  0.63398601  0.39665853  0.10612116     0.81900
N1294       N  0.61330690  0.37271531  0.08556147    -0.78800
C1295       C  0.58919066  0.35224685  0.10607098     0.82000
N1296       N  0.58628726  0.35530694  0.14757205    -0.80500
C1297       C  0.60692388  0.22948787  0.16906005     0.79500
N1298       N  0.58615962  0.23223222  0.14767825    -0.78800
C1299       C  0.58917968  0.23811268  0.10618004     0.81900
N1300       N  0.61312703  0.24127714  0.08579308    -0.78800
C1301       C  0.63352076  0.23763183  0.10649407     0.82000
N1302       N  0.63035191  0.23170555  0.14801816    -0.80500
C1303       C  0.60661576  0.22888203  0.34967325     0.79500
N1304       N  0.58592132  0.23173886  0.37103912    -0.78800
C1305       C  0.58895244  0.23760547  0.41253043     0.81900
N1306       N  0.61285919  0.24067461  0.43294077    -0.78800
C1307       C  0.63319247  0.23692091  0.41224722     0.82000
N1308       N  0.62999632  0.23099291  0.37072265    -0.80500
C1309       C  0.87354120  0.11253205  0.34936970     0.79500
N1310       N  0.84989005  0.09181854  0.37052517    -0.78800
C1311       C  0.84653001  0.09513232  0.41172395     0.81900
N1312       N  0.86698296  0.11934265  0.43207749    -0.78800
C1313       C  0.89114975  0.13973931  0.41155113     0.82000
N1314       N  0.89439376  0.13624446  0.37031783    -0.80500
C1315       C  0.87358164  0.11218570  0.16944020     0.79500
N1316       N  0.89440573  0.13592657  0.14849696    -0.78800
C1317       C  0.89118758  0.13942805  0.10726245     0.81900
N1318       N  0.86705483  0.11898047  0.08671922    -0.78800
C1319       C  0.84662073  0.09472598  0.10704544     0.82000
N1320       N  0.84995914  0.09141869  0.14826794    -0.80500
C1321       C  0.87368569  0.26201292  0.16956897     0.79500
N1322       N  0.85007832  0.25947083  0.14870557    -0.78800
C1323       C  0.84656346  0.25289934  0.10740040     0.81900
N1324       N  0.86686473  0.24902249  0.08677206    -0.78800
C1325       C  0.89099263  0.25250658  0.10707080     0.82000
N1326       N  0.89428514  0.25896627  0.14831812    -0.80500
C1327       C  0.87316897  0.26139726  0.34940382     0.79500
N1328       N  0.89380617  0.25843792  0.37066568    -0.78800
C1329       C  0.89048431  0.25186697  0.41186023     0.81900
N1330       N  0.86630084  0.24822672  0.43214003    -0.78800
C1331       C  0.84596391  0.25205109  0.41153088     0.82000
N1332       N  0.84948262  0.25870035  0.37023603    -0.80500
C1333       C  0.72428276  0.11233487  0.34901972     0.79500
N1334       N  0.72707026  0.13604471  0.36990443    -0.78800
C1335       C  0.73404776  0.13972456  0.41109247     0.81900
N1336       N  0.73806976  0.11947760  0.43159475    -0.78800
C1337       C  0.73436959  0.09526296  0.41131895     0.82000
N1338       N  0.72748918  0.09180030  0.37019180    -0.80500
C1339       C  0.72299764  0.11150656  0.16918378     0.79500
N1340       N  0.72649986  0.09114047  0.14806557    -0.78800
C1341       C  0.73354671  0.09473547  0.10699778     0.81900
N1342       N  0.73713768  0.11890883  0.08673225    -0.78800
C1343       C  0.73280521  0.13896626  0.10720331     0.82000
N1344       N  0.72565905  0.13515503  0.14830874    -0.80500
O1345       O  0.76352730  0.31826450  0.09495602    -0.76000
O1346       O  0.72636647  0.31521857  0.05466280    -0.55000
C1347       C  0.74541063  0.32669095  0.08405333     0.77700
O1348       O  0.81221643  0.26809917  0.42299515    -0.60600
O1349       O  0.81024583  0.23189386  0.46437413    -0.53700
C1350       C  0.82108818  0.25040595  0.43428521     0.69700
O1351       O  0.76415834  0.31850541  0.42407588    -0.75200
O1352       O  0.72676522  0.31539548  0.46388014    -0.55800
C1353       C  0.74602687  0.32696397  0.43475994     0.75700
O1354       O  0.81276726  0.26888173  0.09571360    -0.60300
O1355       O  0.81019943  0.23192808  0.05544479    -0.53500
C1356       C  0.82147352  0.25097462  0.08484424     0.72300
Zr1357     Zr  0.77740925  0.28273388  0.07171155     2.54700
O1358       O  0.82349574  0.32876747  0.06626883    -0.80900
O1359       O  0.77850289  0.28329910  0.14758441    -0.94300
Zr1360     Zr  0.77789228  0.28303184  0.44795634     2.64700
O1361       O  0.82380784  0.32900617  0.45573220    -0.99300
O1362       O  0.78041878  0.28604503  0.37226432    -0.81300
O1363       O  0.76395848  0.29772291  0.00971903    -0.84700
O1364       O  0.79255899  0.26935063  0.00993502    -2.19400
O1365       O  0.71684178  0.17275616  0.09565689    -0.68100
O1366       O  0.75360749  0.17522773  0.05507434    -0.52700
C1367       C  0.73469108  0.16402298  0.08463902     0.70700
O1368       O  0.66685133  0.22078256  0.42394368    -0.61000
O1369       O  0.66967658  0.25794471  0.46401588    -0.53000
C1370       C  0.65820864  0.23872783  0.43483524     0.72500
O1371       O  0.71777473  0.17326336  0.42272648    -0.72400
O1372       O  0.75426971  0.17564305  0.46383585    -0.51100
C1373       C  0.73564896  0.16459716  0.43388143     0.73900
O1374       O  0.66690641  0.22118558  0.09471183    -0.67700
O1375       O  0.66977023  0.25826281  0.05440207    -0.54900
C1376       C  0.65837511  0.23921153  0.08378738     0.72200
Zr1377     Zr  0.70241828  0.20751092  0.07095075     2.77500
O1378       O  0.65639493  0.16163231  0.06330240    -0.98500
O1379       O  0.69961788  0.20504495  0.14665457    -0.79300
Zr1380     Zr  0.70302428  0.20784470  0.44714005     2.70100
O1381       O  0.65767535  0.16112941  0.45253473    -0.80500
O1382       O  0.70154720  0.20794243  0.37128859    -0.99600
Zr1383     Zr  0.71183139  0.27333535  0.00921238     2.21500
Zr1384     Zr  0.76843937  0.21718174  0.00977290     2.11100
O1385       O  0.71628214  0.19283542  0.00917900    -2.48300
O1386       O  0.68777924  0.22122612  0.00892663    -0.80300
O1387       O  0.75423464  0.23092488  0.07241898    -0.72500
O1388       O  0.72614854  0.25956670  0.44659550    -2.33500
O1389       O  0.72565662  0.25925639  0.07203477    -2.29700
O1390       O  0.75481244  0.23123974  0.44688349    -0.74300
H1391       H  0.81356664  0.27773114  0.01011654     0.77700
H1392       H  0.71991444  0.26578323  0.42228298     0.78800
H1393       H  0.70795876  0.17183259  0.00903064     0.81000
H1394       H  0.71930048  0.26542462  0.09626359     0.78600
H1395       H  0.76053227  0.27123725  0.36289603     0.41700
H1396       H  0.72098147  0.21134186  0.36237975     0.40600
H1397       H  0.64408462  0.16573615  0.46758275     0.40300
H1398       H  0.66213604  0.14699553  0.05576781     0.38200
H1399       H  0.71811758  0.22225919  0.15604082     0.41400
H1400       H  0.75892159  0.27966197  0.15613492     0.36200
H1401       H  0.81915924  0.34096843  0.04740292     0.42300
H1402       H  0.83768788  0.32344750  0.46751988     0.38700
H1403       H  0.64871015  0.15636287  0.09205442     0.43600
H1404       H  0.79205624  0.30401106  0.15507914     0.42300
H1405       H  0.83069913  0.33515071  0.42682207     0.42500
H1406       H  0.68771047  0.18734958  0.36354584     0.42800
O1407       O  0.53909003  0.31930028  0.42434927    -0.76000
O1408       O  0.57341448  0.31602420  0.46381872    -0.55000
C1409       C  0.56568677  0.32770363  0.43493505     0.77700
O1410       O  0.94070325  0.26837164  0.09549776    -0.60600
O1411       O  0.90636291  0.23197725  0.05449521    -0.53700
C1412       C  0.91409842  0.25067975  0.08429881     0.69700
O1413       O  0.53936647  0.31891738  0.09401601    -0.75200
O1414       O  0.57365647  0.31598158  0.05401743    -0.55800
C1415       C  0.56595677  0.32742406  0.08324409     0.75700
O1416       O  0.94026551  0.26810968  0.42333124    -0.60300
O1417       O  0.90611270  0.23157446  0.46441601    -0.53500
C1418       C  0.91370699  0.25026179  0.43460952     0.72300
Zr1419     Zr  0.98981620  0.28301684  0.44701692     2.54700
O1420       O  0.98900221  0.32864647  0.45224586    -0.80900
O1421       O  0.98952066  0.28382982  0.37109707    -0.94300
Zr1422     Zr  0.99002340  0.28325626  0.07080975     2.64700
O1423       O  0.98968171  0.32905466  0.06419114    -0.99300
O1424       O  0.99069081  0.28655381  0.14646330    -0.81300
O1425       O  0.51842088  0.29798953  0.00884624    -0.84700
O1426       O  0.96154325  0.26959053  0.00902566    -2.19400
O1427       O  0.94087127  0.17353218  0.42299837    -0.68100
O1428       O  0.90660473  0.17563330  0.46411513    -0.52700
C1429       C  0.91430498  0.16467775  0.43423801     0.70700
O1430       O  0.53945723  0.22148607  0.09373725    -0.61000
O1431       O  0.57374938  0.25924358  0.05440645    -0.53000
C1432       C  0.56604433  0.23981399  0.08327048     0.72500
O1433       O  0.94092250  0.17324968  0.09557799    -0.72400
O1434       O  0.90657243  0.17563387  0.05505256    -0.51100
C1435       C  0.91431809  0.16448439  0.08462292     0.73900
O1436       O  0.53931241  0.22140109  0.42469825    -0.67700
O1437       O  0.57369562  0.25890063  0.46425007    -0.54900
C1438       C  0.56591367  0.23951224  0.43533467     0.72200
Zr1439     Zr  0.99010360  0.20823198  0.44740851     2.77500
O1440       O  0.98966350  0.16193367  0.45156441    -0.98500
O1441       O  0.99122342  0.20824024  0.37161033    -0.79300
Zr1442     Zr  0.99016155  0.20826624  0.07125375     2.70100
O1443       O  0.98902708  0.16164916  0.06629803    -0.80500
O1444       O  0.99206417  0.20860899  0.14706901    -0.99600
Zr1445     Zr  0.54646117  0.27391352  0.00903679     2.21500
Zr1446     Zr  0.93373704  0.21741212  0.00951977     2.11100
O1447       O  0.96179565  0.19336249  0.00939636    -2.48300
O1448       O  0.51861772  0.22178786  0.00927545    -0.80300
O1449       O  0.96137847  0.23123501  0.44659092    -0.72500
O1450       O  0.51846856  0.25998537  0.07175577    -2.33500
O1451       O  0.51846556  0.25993290  0.44632291    -2.29700
O1452       O  0.96154962  0.23143487  0.07230546    -0.74300
H1453       H  0.94884916  0.27787996  0.00897041     0.77700
H1454       H  0.53098549  0.26625450  0.09599782     0.78800
H1455       H  0.94918055  0.17235474  0.00946823     0.81000
H1456       H  0.53098470  0.26616579  0.42208276     0.78600
H1457       H  0.49642034  0.27225519  0.15591119     0.41700
H1458       H  0.97589605  0.21177129  0.15605344     0.40600
H1459       H  0.50497441  0.16539009  0.04658788     0.40300
H1460       H  0.97044226  0.14802429  0.46397365     0.38200
H1461       H  0.98513405  0.22250100  0.36339042     0.41400
H1462       H  0.50649001  0.28184998  0.36256493     0.36200
H1463       H  0.50466726  0.34056872  0.47249754     0.42300
H1464       H  0.97003220  0.32337686  0.05308986     0.38700
H1465       H  0.98811933  0.15551642  0.42222319     0.43600
H1466       H  0.99516176  0.30422735  0.36378502     0.42300
H1467       H  0.98929576  0.33508392  0.09329213     0.42500
H1468       H  0.98555492  0.18808618  0.15488789     0.42800
O1469       O  0.76448801  0.44657474  0.42421637    -0.76000
O1470       O  0.72731741  0.41231123  0.46436735    -0.55000
C1471       C  0.74649859  0.41998818  0.43519594     0.77700
O1472       O  0.81289034  0.04497677  0.09537479    -0.60600
O1473       O  0.81070456  0.07930191  0.05452514    -0.53700
C1474       C  0.82172098  0.07157316  0.08426574     0.69700
O1475       O  0.76431460  0.44633406  0.09421720    -0.75200
O1476       O  0.72713564  0.41222653  0.05392337    -0.55800
C1477       C  0.74616631  0.41977914  0.08329817     0.75700
O1478       O  0.81293017  0.04538299  0.42326452    -0.60300
O1479       O  0.81055044  0.07957700  0.46417215    -0.53500
C1480       C  0.82165685  0.07194173  0.43444497     0.72300
Zr1481     Zr  0.77796335  0.49598791  0.44693146     2.54700
O1482       O  0.82428867  0.49655992  0.45192099    -0.80900
O1483       O  0.77954211  0.99725443  0.37108287    -0.94300
Zr1484     Zr  0.77829134  0.49570074  0.07072523     2.64700
O1485       O  0.82411967  0.49543558  0.06324887    -0.99300
O1486       O  0.78094417  0.99526536  0.14638717    -0.81300
O1487       O  0.76446180  0.46739061  0.00871274    -0.84700
O1488       O  0.79313584  0.02427708  0.00895313    -2.19400
O1489       O  0.71811575  0.04548280  0.42296146    -0.68100
O1490       O  0.75457548  0.07963940  0.46409806    -0.52700
C1491       C  0.73596760  0.07204521  0.43417049     0.70700
O1492       O  0.66710646  0.44646063  0.09386631    -0.61000
O1493       O  0.67055306  0.41221647  0.05445540    -0.53000
C1494       C  0.65884897  0.41987897  0.08335902     0.72500
O1495       O  0.71775262  0.04513834  0.09532153    -0.72400
O1496       O  0.75440405  0.07949860  0.05466599    -0.51100
C1497       C  0.73554876  0.07173270  0.08427699     0.73900
O1498       O  0.66712038  0.44680335  0.42424026    -0.67700
O1499       O  0.67023900  0.41247920  0.46392154    -0.54900
C1500       C  0.65866529  0.42020474  0.43489381     0.72200
Zr1501     Zr  0.70297294  0.49605594  0.44743339     2.77500
O1502       O  0.65722387  0.49672116  0.45264898    -0.98500
O1503       O  0.70123743  0.49574162  0.37163954    -0.79300
Zr1504     Zr  0.70322316  0.49581215  0.07134971     2.70100
O1505       O  0.65787763  0.49715759  0.06600012    -0.80500
O1506       O  0.70113589  0.49419333  0.14720801    -0.99600
Zr1507     Zr  0.71235804  0.43957733  0.00901890     2.21500
Zr1508     Zr  0.76879117  0.05210977  0.00941591     2.11100
O1509       O  0.71659222  0.02430951  0.00952101    -2.48300
O1510       O  0.68815837  0.46747993  0.00931070    -0.80300
O1511       O  0.75475169  0.02451884  0.44649560    -0.72500
O1512       O  0.72650787  0.46737995  0.07195150    -2.33500
O1513       O  0.72617858  0.46750530  0.44612584    -2.29700
O1514       O  0.75505043  0.02426597  0.07220242    -0.74300
H1515       H  0.81415824  0.03690777  0.00885306     0.77700
H1516       H  0.72023536  0.45484978  0.09619796     0.78800
H1517       H  0.70829085  0.03700436  0.00969178     0.81000
H1518       H  0.71987137  0.45498880  0.42186494     0.78600
H1519       H  0.76373347  0.49649193  0.15590767     0.41700
H1520       H  0.72027639  0.01060624  0.15639156     0.40600
H1521       H  0.64766733  0.48466339  0.04164306     0.40300
H1522       H  0.66290981  0.01646589  0.46337392     0.38200
H1523       H  0.72131229  0.00107332  0.36292137     0.41400
H1524       H  0.76002766  0.48134316  0.36220392     0.36200
H1525       H  0.81999199  0.47965885  0.46999831     0.42300
H1526       H  0.83916277  0.01616362  0.05844325     0.38700
H1527       H  0.65140084  0.49693724  0.42337949     0.43600
H1528       H  0.79317202  0.49021494  0.36354713     0.42300
H1529       H  0.82834218  0.49106276  0.09156909     0.42500
H1530       H  0.68680291  0.50038092  0.15455822     0.42800
C1531       C  0.72226520  0.08816729  0.28090786    -0.14100
C1532       C  0.71979117  0.10977828  0.30320774     0.08000
C1533       C  0.71517544  0.13008153  0.28093173    -0.14100
C1534       C  0.71471571  0.12977701  0.23732146    -0.14100
C1535       C  0.71891661  0.10920018  0.21505265     0.08000
C1536       C  0.72181969  0.08787135  0.23741262    -0.14100
H1537       H  0.72573062  0.07209375  0.29695367     0.12000
H1538       H  0.71286735  0.14683059  0.29711265     0.12000
H1539       H  0.71210960  0.14633003  0.22109384     0.12000
H1540       H  0.72499602  0.07160739  0.22137585     0.12000
C1541       C  0.89606521  0.26101686  0.23782669    -0.14100
C1542       C  0.87586278  0.26570247  0.21546411     0.08000
C1543       C  0.85644897  0.27167189  0.23767110    -0.14100
C1544       C  0.85629425  0.27149729  0.28129400    -0.14100
C1545       C  0.87555440  0.26535340  0.30356011     0.08000
C1546       C  0.89591479  0.26084863  0.28128732    -0.14100
H1547       H  0.91132619  0.25632191  0.22181982     0.12000
H1548       H  0.84079769  0.27565417  0.22137915     0.12000
H1549       H  0.84054048  0.27535979  0.29752147     0.12000
H1550       H  0.91107623  0.25603899  0.29734887     0.12000
C1551       C  0.85195011  0.08783845  0.28124468    -0.14100
C1552       C  0.87544378  0.11026031  0.30350986     0.08000
C1553       C  0.89968050  0.13165691  0.28117180    -0.14100
C1554       C  0.89969172  0.13154468  0.23758778    -0.14100
C1555       C  0.87546032  0.11004661  0.21533829     0.08000
C1556       C  0.85195396  0.08773553  0.23771789    -0.14100
H1557       H  0.83297264  0.07089469  0.29736009     0.12000
H1558       H  0.91827421  0.14909920  0.29728930     0.12000
H1559       H  0.91829827  0.14890857  0.22138425     0.12000
H1560       H  0.83297679  0.07072845  0.22168299     0.12000
C1561       C  0.58321376  0.22822553  0.23756727    -0.14100
C1562       C  0.60493395  0.22598009  0.21515976     0.08000
C1563       C  0.62578690  0.22225587  0.23751643    -0.14100
C1564       C  0.62568261  0.22206610  0.28115294    -0.14100
C1565       C  0.60473532  0.22561306  0.30354503     0.08000
C1566       C  0.58311566  0.22804655  0.28115556    -0.14100
H1567       H  0.56675300  0.23106702  0.22149748     0.12000
H1568       H  0.64271015  0.22023858  0.22134753     0.12000
H1569       H  0.64253561  0.21992126  0.29730769     0.12000
H1570       H  0.56659023  0.23077068  0.29725075     0.12000
C1571       C  0.62876389  0.40342375  0.28087681    -0.14100
C1572       C  0.60558121  0.38074927  0.30330412     0.08000
C1573       C  0.58188432  0.35861964  0.28092779    -0.14100
C1574       C  0.58196097  0.35850032  0.23730027    -0.14100
C1575       C  0.60572842  0.38051799  0.21490212     0.08000
C1576       C  0.62883496  0.40331038  0.23727887    -0.14100
H1577       H  0.64736367  0.42088576  0.29695536     0.12000
H1578       H  0.56358146  0.34086593  0.29707796     0.12000
H1579       H  0.56371290  0.34066535  0.22118381     0.12000
H1580       H  0.64748057  0.42069894  0.22117480     0.12000
C1581       C  0.76359489  0.35996338  0.23751055    -0.14100
C1582       C  0.75927030  0.38046278  0.21522811     0.08000
C1583       C  0.75656164  0.40189833  0.23764919    -0.14100
C1584       C  0.75683896  0.40202966  0.28120791    -0.14100
C1585       C  0.75981005  0.38071417  0.30354599     0.08000
C1586       C  0.76386428  0.36008944  0.28114671    -0.14100
H1587       H  0.76602415  0.34330294  0.22128228     0.12000
H1588       H  0.75324350  0.41807216  0.22161878     0.12000
H1589       H  0.75370948  0.41829561  0.29732525     0.12000
H1590       H  0.76646627  0.34350954  0.29729972     0.12000
C1591       C  0.75564800  0.37840948  0.66918686     0.79500
N1592       N  0.75335424  0.39941195  0.64774626    -0.78800
C1593       C  0.74748742  0.39643770  0.60625708     0.81900
N1594       N  0.74383989  0.37225792  0.58594723    -0.78800
C1595       C  0.74702051  0.35159692  0.60673233     0.82000
N1596       N  0.75297468  0.35476164  0.64824356    -0.80500
C1597       C  0.75650989  0.37880012  0.84963325     0.79500
N1598       N  0.75411036  0.39975014  0.87102075    -0.78800
C1599       C  0.74817792  0.39676997  0.91247289     0.81900
N1600       N  0.74456459  0.37261600  0.93283904    -0.78800
C1601       C  0.74785459  0.35199315  0.91211052     0.82000
N1602       N  0.75387350  0.35517508  0.87060922    -0.80500
C1603       C  0.60715330  0.37907973  0.84945302     0.79500
N1604       N  0.58602147  0.35569921  0.87068567    -0.78800
C1605       C  0.58889684  0.35263607  0.91219415     0.81900
N1606       N  0.61302145  0.37309554  0.93270819    -0.78800
C1607       C  0.63372245  0.39703866  0.91214857     0.82000
N1608       N  0.63072248  0.39995347  0.87065451    -0.80500
C1609       C  0.60740522  0.37870074  0.66879809     0.79500
N1610       N  0.63097289  0.39957436  0.64760267    -0.78800
C1611       C  0.63398601  0.39665856  0.60612117     0.81900
N1612       N  0.61330692  0.37271532  0.58556149    -0.78800
C1613       C  0.58919066  0.35224687  0.60607098     0.82000
N1614       N  0.58628722  0.35530701  0.64757203    -0.80500
C1615       C  0.60692389  0.22948788  0.66906006     0.79500
N1616       N  0.58615963  0.23223220  0.64767824    -0.78800
C1617       C  0.58917963  0.23811253  0.60617999     0.81900
N1618       N  0.61312696  0.24127695  0.58579302    -0.78800
C1619       C  0.63352076  0.23763177  0.60649407     0.82000
N1620       N  0.63035194  0.23170557  0.64801819    -0.80500
C1621       C  0.60661579  0.22888209  0.84967328     0.79500
N1622       N  0.58592138  0.23173900  0.87103912    -0.78800
C1623       C  0.58895246  0.23760551  0.91253046     0.81900
N1624       N  0.61285919  0.24067460  0.93294081    -0.78800
C1625       C  0.63319246  0.23692091  0.91224725     0.82000
N1626       N  0.62999631  0.23099290  0.87072269    -0.80500
C1627       C  0.87354114  0.11253208  0.84936969     0.79500
N1628       N  0.84989004  0.09181855  0.87052520    -0.78800
C1629       C  0.84652999  0.09513235  0.91172397     0.81900
N1630       N  0.86698289  0.11934270  0.93207751    -0.78800
C1631       C  0.89114969  0.13973934  0.91155115     0.82000
N1632       N  0.89439368  0.13624452  0.87031782    -0.80500
C1633       C  0.87358166  0.11218571  0.66944016     0.79500
N1634       N  0.89440575  0.13592657  0.64849690    -0.78800
C1635       C  0.89118757  0.13942804  0.60726241     0.81900
N1636       N  0.86705480  0.11898046  0.58671919    -0.78800
C1637       C  0.84662070  0.09472599  0.60704545     0.82000
N1638       N  0.84995914  0.09141871  0.64826793    -0.80500
C1639       C  0.87368569  0.26201292  0.66956899     0.79500
N1640       N  0.85007831  0.25947082  0.64870557    -0.78800
C1641       C  0.84656345  0.25289933  0.60740040     0.81900
N1642       N  0.86686473  0.24902248  0.58677208    -0.78800
C1643       C  0.89099261  0.25250655  0.60707084     0.82000
N1644       N  0.89428513  0.25896626  0.64831816    -0.80500
C1645       C  0.87316897  0.26139725  0.84940383     0.79500
N1646       N  0.89380618  0.25843792  0.87066567    -0.78800
C1647       C  0.89048432  0.25186697  0.91186023     0.81900
N1648       N  0.86630087  0.24822672  0.93214004    -0.78800
C1649       C  0.84596392  0.25205108  0.91153089     0.82000
N1650       N  0.84948263  0.25870034  0.87023605    -0.80500
C1651       C  0.72428276  0.11233487  0.84901971     0.79500
N1652       N  0.72707021  0.13604469  0.86990443    -0.78800
C1653       C  0.73404765  0.13972452  0.91109250     0.81900
N1654       N  0.73806971  0.11947760  0.93159478    -0.78800
C1655       C  0.73436959  0.09526297  0.91131897     0.82000
N1656       N  0.72748918  0.09180031  0.87019182    -0.80500
C1657       C  0.72299765  0.11150656  0.66918377     0.79500
N1658       N  0.72649987  0.09114048  0.64806554    -0.78800
C1659       C  0.73354665  0.09473546  0.60699774     0.81900
N1660       N  0.73713756  0.11890879  0.58673221    -0.78800
C1661       C  0.73280518  0.13896626  0.60720332     0.82000
N1662       N  0.72565906  0.13515504  0.64830876    -0.80500
O1663       O  0.76352721  0.31826446  0.59495608    -0.76000
O1664       O  0.72636643  0.31521857  0.55466277    -0.55000
C1665       C  0.74541058  0.32669095  0.58405332     0.77700
O1666       O  0.81221635  0.26809905  0.92299510    -0.60600
O1667       O  0.81024585  0.23189383  0.96437420    -0.53700
C1668       C  0.82108817  0.25040589  0.93428523     0.69700
O1669       O  0.76415832  0.31850543  0.92407584    -0.75200
O1670       O  0.72676529  0.31539559  0.96388023    -0.55800
C1671       C  0.74602689  0.32696404  0.93475995     0.75700
O1672       O  0.81276723  0.26888170  0.59571362    -0.60300
O1673       O  0.81019949  0.23192814  0.55544468    -0.53500
C1674       C  0.82147352  0.25097462  0.58484421     0.72300
Zr1675     Zr  0.77740926  0.28273390  0.57171159     2.54700
O1676       O  0.82349575  0.32876743  0.56626864    -0.80900
O1677       O  0.77850305  0.28329935  0.64758444    -0.94300
Zr1678     Zr  0.77789227  0.28303183  0.94795625     2.64700
O1679       O  0.82380783  0.32900612  0.95573257    -0.99300
O1680       O  0.78041905  0.28604510  0.87226427    -0.81300
O1681       O  0.76395847  0.29772292  0.50971911    -0.84700
O1682       O  0.79255915  0.26935074  0.50993510    -2.19400
O1683       O  0.71684178  0.17275616  0.59565694    -0.68100
O1684       O  0.75360749  0.17522774  0.55507437    -0.52700
C1685       C  0.73469108  0.16402299  0.58463906     0.70700
O1686       O  0.66685133  0.22078257  0.92394371    -0.61000
O1687       O  0.66967657  0.25794472  0.96401590    -0.53000
C1688       C  0.65820863  0.23872783  0.93483527     0.72500
O1689       O  0.71777465  0.17326336  0.92272644    -0.72400
O1690       O  0.75426956  0.17564301  0.96383590    -0.51100
C1691       C  0.73564883  0.16459713  0.93388145     0.73900
O1692       O  0.66690646  0.22118557  0.59471183    -0.67700
O1693       O  0.66977023  0.25826281  0.55440210    -0.54900
C1694       C  0.65837514  0.23921152  0.58378741     0.72200
Zr1695     Zr  0.70241837  0.20751096  0.57095079     2.77500
O1696       O  0.65639497  0.16163255  0.56330241    -0.98500
O1697       O  0.69961827  0.20504515  0.64665469    -0.79300
Zr1698     Zr  0.70302427  0.20784471  0.94714005     2.70100
O1699       O  0.65767532  0.16112944  0.95253481    -0.80500
O1700       O  0.70154702  0.20794217  0.87128857    -0.99600
Zr1701     Zr  0.71183137  0.27333532  0.50921241     2.21500
Zr1702     Zr  0.76843940  0.21718177  0.50977288     2.11100
O1703       O  0.71628216  0.19283542  0.50917899    -2.48300
O1704       O  0.68777927  0.22122611  0.50892668    -0.80300
O1705       O  0.75423471  0.23092491  0.57241901    -0.72500
O1706       O  0.72614854  0.25956670  0.94659548    -2.33500
O1707       O  0.72565663  0.25925639  0.57203480    -2.29700
O1708       O  0.75481243  0.23123973  0.94688349    -0.74300
H1709       H  0.81356685  0.27773135  0.51011660     0.77700
H1710       H  0.71991441  0.26578322  0.92228298     0.78800
H1711       H  0.70795878  0.17183259  0.50903065     0.81000
H1712       H  0.71930047  0.26542459  0.59626362     0.78600
H1713       H  0.76053330  0.27123539  0.86289586     0.41700
H1714       H  0.72098112  0.21134120  0.86237966     0.40600
H1715       H  0.64408454  0.16573623  0.96758253     0.40300
H1716       H  0.66213603  0.14699573  0.55576774     0.38200
H1717       H  0.71811848  0.22225868  0.65604088     0.41400
H1718       H  0.75892167  0.27966199  0.65613496     0.36200
H1719       H  0.81915912  0.34096849  0.54740310     0.42300
H1720       H  0.83768797  0.32344736  0.96751962     0.38700
H1721       H  0.64871023  0.15636308  0.59205449     0.43600
H1722       H  0.79205621  0.30401137  0.65507909     0.42300
H1723       H  0.83069895  0.33515104  0.92682248     0.42500
H1724       H  0.68770997  0.18734938  0.86354592     0.42800
O1725       O  0.53909004  0.31930030  0.92434927    -0.76000
O1726       O  0.57341448  0.31602421  0.96381874    -0.55000
C1727       C  0.56568677  0.32770364  0.93493507     0.77700
O1728       O  0.94070323  0.26837159  0.59549779    -0.60600
O1729       O  0.90636288  0.23197720  0.55449524    -0.53700
C1730       C  0.91409840  0.25067970  0.58429886     0.69700
O1731       O  0.53936650  0.31891732  0.59401607    -0.75200
O1732       O  0.57365652  0.31598159  0.55401743    -0.55800
C1733       C  0.56595681  0.32742406  0.58324411     0.75700
O1734       O  0.94026551  0.26810968  0.92333124    -0.60300
O1735       O  0.90611270  0.23157447  0.96441602    -0.53500
C1736       C  0.91370700  0.25026179  0.93460953     0.72300
Zr1737     Zr  0.98981621  0.28301685  0.94701687     2.54700
O1738       O  0.98900205  0.32864643  0.95224589    -0.80900
O1739       O  0.98952055  0.28382950  0.87109706    -0.94300
Zr1740     Zr  0.99002340  0.28325627  0.57080975     2.64700
O1741       O  0.98968173  0.32905465  0.56419078    -0.99300
O1742       O  0.99069065  0.28655422  0.64646319    -0.81300
O1743       O  0.51842096  0.29798955  0.50884632    -0.84700
O1744       O  0.96154322  0.26959052  0.50902572    -2.19400
O1745       O  0.94087125  0.17353220  0.92299821    -0.68100
O1746       O  0.90660475  0.17563330  0.96411515    -0.52700
C1747       C  0.91430496  0.16467774  0.93423798     0.70700
O1748       O  0.53945720  0.22148595  0.59373722    -0.61000
O1749       O  0.57374935  0.25924355  0.55440654    -0.53000
C1750       C  0.56604429  0.23981388  0.58327048     0.72500
O1751       O  0.94092249  0.17324968  0.59557800    -0.72400
O1752       O  0.90657243  0.17563388  0.55505256    -0.51100
C1753       C  0.91431808  0.16448439  0.58462290     0.73900
O1754       O  0.53931242  0.22140109  0.92469824    -0.67700
O1755       O  0.57369562  0.25890064  0.96425010    -0.54900
C1756       C  0.56591368  0.23951225  0.93533470     0.72200
Zr1757     Zr  0.99010360  0.20823198  0.94740841     2.77500
O1758       O  0.98966351  0.16193368  0.95156409    -0.98500
O1759       O  0.99122321  0.20824032  0.87161020    -0.79300
Zr1760     Zr  0.99016156  0.20826626  0.57125378     2.70100
O1761       O  0.98902700  0.16164914  0.56629846    -0.80500
O1762       O  0.99206408  0.20860915  0.64706905    -0.99600
Zr1763     Zr  0.54646120  0.27391351  0.50903683     2.21500
Zr1764     Zr  0.93373703  0.21741212  0.50951979     2.11100
O1765       O  0.96179564  0.19336248  0.50939643    -2.48300
O1766       O  0.51861774  0.22178787  0.50927555    -0.80300
O1767       O  0.96137847  0.23123502  0.94659090    -0.72500
O1768       O  0.51846857  0.25998537  0.57175580    -2.33500
O1769       O  0.51846563  0.25993294  0.94632273    -2.29700
O1770       O  0.96154962  0.23143488  0.57230549    -0.74300
H1771       H  0.94884914  0.27787996  0.50897046     0.77700
H1772       H  0.53098549  0.26625449  0.59599786     0.78800
H1773       H  0.94918054  0.17235473  0.50946829     0.81000
H1774       H  0.53098484  0.26616586  0.92208257     0.78600
H1775       H  0.49642008  0.27225537  0.65591133     0.41700
H1776       H  0.97589596  0.21177146  0.65605350     0.40600
H1777       H  0.50497443  0.16539013  0.54658798     0.40300
H1778       H  0.97044240  0.14802438  0.96397374     0.38200
H1779       H  0.98513368  0.22250095  0.86339044     0.41400
H1780       H  0.50648992  0.28184974  0.86256493     0.36200
H1781       H  0.50466727  0.34056880  0.97249729     0.42300
H1782       H  0.97003204  0.32337679  0.55309011     0.38700
H1783       H  0.98811898  0.15551626  0.92222289     0.43600
H1784       H  0.99516163  0.30422704  0.86378499     0.42300
H1785       H  0.98929625  0.33508424  0.59329175     0.42500
H1786       H  0.98555484  0.18808635  0.65488786     0.42800
O1787       O  0.76448802  0.44657476  0.92421639    -0.76000
O1788       O  0.72731742  0.41231123  0.96436735    -0.55000
C1789       C  0.74649859  0.41998820  0.93519592     0.77700
O1790       O  0.81289030  0.04497678  0.59537483    -0.60600
O1791       O  0.81070452  0.07930191  0.55452517    -0.53700
C1792       C  0.82172093  0.07157317  0.58426579     0.69700
O1793       O  0.76431444  0.44633405  0.59421730    -0.75200
O1794       O  0.72713559  0.41222650  0.55392336    -0.55800
C1795       C  0.74616620  0.41977913  0.58329823     0.75700
O1796       O  0.81293017  0.04538302  0.92326455    -0.60300
O1797       O  0.81055044  0.07957703  0.96417219    -0.53500
C1798       C  0.82165684  0.07194175  0.93444500     0.72300
Zr1799     Zr  0.77796332  0.49598792  0.94693148     2.54700
O1800       O  0.82428854  0.49655982  0.95192144    -0.80900
O1801       O  0.77954235  0.99725440  0.87108286    -0.94300
Zr1802     Zr  0.77829133  0.49570074  0.57072523     2.64700
O1803       O  0.82411967  0.49543569  0.56324840    -0.99300
O1804       O  0.78094421  0.99526558  0.64638721    -0.81300
O1805       O  0.76446188  0.46739058  0.50871275    -0.84700
O1806       O  0.79313584  0.02427709  0.50895313    -2.19400
O1807       O  0.71811574  0.04548281  0.92296148    -0.68100
O1808       O  0.75457548  0.07963940  0.96409809    -0.52700
C1809       C  0.73596760  0.07204522  0.93417052     0.70700
O1810       O  0.66710647  0.44646064  0.59386633    -0.61000
O1811       O  0.67055307  0.41221648  0.55445542    -0.53000
C1812       C  0.65884897  0.41987898  0.58335903     0.72500
O1813       O  0.71775262  0.04513835  0.59532155    -0.72400
O1814       O  0.75440405  0.07949861  0.55466600    -0.51100
C1815       C  0.73554875  0.07173270  0.58427697     0.73900
O1816       O  0.66712035  0.44680336  0.92424028    -0.67700
O1817       O  0.67023905  0.41247920  0.96392142    -0.54900
C1818       C  0.65866529  0.42020475  0.93489377     0.72200
Zr1819     Zr  0.70297294  0.49605593  0.94743343     2.77500
O1820       O  0.65722384  0.49672114  0.95264861    -0.98500
O1821       O  0.70123763  0.49574162  0.87163958    -0.79300
Zr1822     Zr  0.70322315  0.49581214  0.57134969     2.70100
O1823       O  0.65787759  0.49715755  0.56600006    -0.80500
O1824       O  0.70113579  0.49419332  0.64720804    -0.99600
Zr1825     Zr  0.71235807  0.43957735  0.50901890     2.21500
Zr1826     Zr  0.76879117  0.05210978  0.50941588     2.11100
O1827       O  0.71659222  0.02430951  0.50952103    -2.48300
O1828       O  0.68815838  0.46747994  0.50931063    -0.80300
O1829       O  0.75475169  0.02451883  0.94649562    -0.72500
O1830       O  0.72650787  0.46737996  0.57195152    -2.33500
O1831       O  0.72617857  0.46750530  0.94612586    -2.29700
O1832       O  0.75505041  0.02426594  0.57220229    -0.74300
H1833       H  0.81415823  0.03690778  0.50885308     0.77700
H1834       H  0.72023534  0.45484979  0.59619798     0.78800
H1835       H  0.70829084  0.03700436  0.50969179     0.81000
H1836       H  0.71987137  0.45498881  0.92186494     0.78600
H1837       H  0.76373241  0.49649020  0.65590769     0.41700
H1838       H  0.72027643  0.01060637  0.65639161     0.40600
H1839       H  0.64766703  0.48466288  0.54164353     0.40300
H1840       H  0.66290981  0.01646586  0.96337410     0.38200
H1841       H  0.72131270  0.00107381  0.86292126     0.41400
H1842       H  0.76002764  0.48134333  0.86220399     0.36200
H1843       H  0.81999179  0.47965883  0.96999890     0.42300
H1844       H  0.83916277  0.01616372  0.55844290     0.38700
H1845       H  0.65140126  0.49693794  0.92337909     0.43600
H1846       H  0.79317190  0.49021478  0.86354718     0.42300
H1847       H  0.82834206  0.49106258  0.59156853     0.42500
H1848       H  0.68680259  0.50038062  0.65455826     0.42800
C1849       C  0.72226512  0.08816723  0.78090779    -0.14100
C1850       C  0.71979115  0.10977825  0.80320769     0.08000
C1851       C  0.71517545  0.13008151  0.78093168    -0.14100
C1852       C  0.71471571  0.12977699  0.73732140    -0.14100
C1853       C  0.71891661  0.10920017  0.71505262     0.08000
C1854       C  0.72181967  0.08787132  0.73741256    -0.14100
H1855       H  0.72573050  0.07209362  0.79695359     0.12000
H1856       H  0.71286738  0.14683058  0.79711259     0.12000
H1857       H  0.71210961  0.14633000  0.72109378     0.12000
H1858       H  0.72499602  0.07160738  0.72137573     0.12000
C1859       C  0.89606520  0.26101686  0.73782671    -0.14100
C1860       C  0.87586278  0.26570248  0.71546413     0.08000
C1861       C  0.85644897  0.27167189  0.73767112    -0.14100
C1862       C  0.85629425  0.27149729  0.78129402    -0.14100
C1863       C  0.87555440  0.26535339  0.80356011     0.08000
C1864       C  0.89591479  0.26084864  0.78128733    -0.14100
H1865       H  0.91132619  0.25632191  0.72181984     0.12000
H1866       H  0.84079769  0.27565417  0.72137917     0.12000
H1867       H  0.84054048  0.27535979  0.79752150     0.12000
H1868       H  0.91107623  0.25603899  0.79734889     0.12000
C1869       C  0.85195009  0.08783845  0.78124460    -0.14100
C1870       C  0.87544376  0.11026030  0.80350984     0.08000
C1871       C  0.89968053  0.13165685  0.78117183    -0.14100
C1872       C  0.89969177  0.13154461  0.73758779    -0.14100
C1873       C  0.87546036  0.11004661  0.71533825     0.08000
C1874       C  0.85195399  0.08773556  0.73771781    -0.14100
H1875       H  0.83297259  0.07089468  0.79735998     0.12000
H1876       H  0.91827421  0.14909910  0.79728934     0.12000
H1877       H  0.91829836  0.14890850  0.72138428     0.12000
H1878       H  0.83297680  0.07072849  0.72168285     0.12000
C1879       C  0.58321377  0.22822555  0.73756729    -0.14100
C1880       C  0.60493395  0.22598009  0.71515978     0.08000
C1881       C  0.62578688  0.22225585  0.73751646    -0.14100
C1882       C  0.62568260  0.22206609  0.78115297    -0.14100
C1883       C  0.60473532  0.22561307  0.80354506     0.08000
C1884       C  0.58311567  0.22804658  0.78115559    -0.14100
H1885       H  0.56675305  0.23106712  0.72149750     0.12000
H1886       H  0.64271011  0.22023851  0.72134755     0.12000
H1887       H  0.64253559  0.21992124  0.79730773     0.12000
H1888       H  0.56659028  0.23077077  0.79725077     0.12000
C1889       C  0.62876389  0.40342381  0.78087678    -0.14100
C1890       C  0.60558124  0.38074929  0.80330411     0.08000
C1891       C  0.58188436  0.35861965  0.78092778    -0.14100
C1892       C  0.58196106  0.35850027  0.73730026    -0.14100
C1893       C  0.60572842  0.38051803  0.71490210     0.08000
C1894       C  0.62883488  0.40331052  0.73727882    -0.14100
H1895       H  0.64736366  0.42088583  0.79695529     0.12000
H1896       H  0.56358149  0.34086594  0.79707796     0.12000
H1897       H  0.56371304  0.34066523  0.72118382     0.12000
H1898       H  0.64748039  0.42069918  0.72117472     0.12000
C1899       C  0.76359496  0.35996345  0.73751053    -0.14100
C1900       C  0.75927031  0.38046280  0.71522811     0.08000
C1901       C  0.75656163  0.40189835  0.73764920    -0.14100
C1902       C  0.75683896  0.40202967  0.78120792    -0.14100
C1903       C  0.75981004  0.38071418  0.80354598     0.08000
C1904       C  0.76386431  0.36008948  0.78114669    -0.14100
H1905       H  0.76602428  0.34330306  0.72128227     0.12000
H1906       H  0.75324347  0.41807217  0.72161880     0.12000
H1907       H  0.75370948  0.41829562  0.79732527     0.12000
H1908       H  0.76646630  0.34350957  0.79729970     0.12000
C1909       C  0.75564795  0.87840946  0.16918684     0.79500
N1910       N  0.75335420  0.89941194  0.14774624    -0.78800
C1911       C  0.74748744  0.89643770  0.10625704     0.81900
N1912       N  0.74383986  0.87225790  0.08594721    -0.78800
C1913       C  0.74702053  0.85159693  0.10673232     0.82000
N1914       N  0.75297470  0.85476166  0.14824353    -0.80500
C1915       C  0.75650982  0.87880004  0.34963323     0.79500
N1916       N  0.75411029  0.89975007  0.37102072    -0.78800
C1917       C  0.74817787  0.89676993  0.41247285     0.81900
N1918       N  0.74456453  0.87261596  0.43283903    -0.78800
C1919       C  0.74785452  0.85199311  0.41211051     0.82000
N1920       N  0.75387344  0.85517502  0.37060923    -0.80500
C1921       C  0.60715330  0.87907979  0.34945309     0.79500
N1922       N  0.58602145  0.85569929  0.37068575    -0.78800
C1923       C  0.58889684  0.85263613  0.41219422     0.81900
N1924       N  0.61302151  0.87309555  0.43270822    -0.78800
C1925       C  0.63372251  0.89703865  0.41214858     0.82000
N1926       N  0.63072250  0.89995350  0.37065455    -0.80500
C1927       C  0.60740524  0.87870071  0.16879810     0.79500
N1928       N  0.63097287  0.89957436  0.14760266    -0.78800
C1929       C  0.63398599  0.89665858  0.10612114     0.81900
N1930       N  0.61330690  0.87271535  0.08556146    -0.78800
C1931       C  0.58919065  0.85224686  0.10607096     0.82000
N1932       N  0.58628726  0.85530695  0.14757204    -0.80500
C1933       C  0.60692385  0.72948786  0.16906007     0.79500
N1934       N  0.58615957  0.73223215  0.14767824    -0.78800
C1935       C  0.58917965  0.73811263  0.10618002     0.81900
N1936       N  0.61312700  0.74127707  0.08579307    -0.78800
C1937       C  0.63352076  0.73763181  0.10649408     0.82000
N1938       N  0.63035193  0.73170561  0.14801821    -0.80500
C1939       C  0.60661575  0.72888202  0.34967327     0.79500
N1940       N  0.58592137  0.73173897  0.37103909    -0.78800
C1941       C  0.58895251  0.73760563  0.41253039     0.81900
N1942       N  0.61285923  0.74067472  0.43294075    -0.78800
C1943       C  0.63319244  0.73692090  0.41224726     0.82000
N1944       N  0.62999627  0.73099283  0.37072271    -0.80500
C1945       C  0.87354117  0.61253204  0.34936968     0.79500
N1946       N  0.84989004  0.59181851  0.37052517    -0.78800
C1947       C  0.84653006  0.59513228  0.41172398     0.81900
N1948       N  0.86698298  0.61934263  0.43207749    -0.78800
C1949       C  0.89114976  0.63973929  0.41155112     0.82000
N1950       N  0.89439375  0.63624446  0.37031781    -0.80500
C1951       C  0.87358163  0.61218571  0.16944020     0.79500
N1952       N  0.89440575  0.63592658  0.14849698    -0.78800
C1953       C  0.89118762  0.63942808  0.10726247     0.81900
N1954       N  0.86705490  0.61898048  0.08671918    -0.78800
C1955       C  0.84662077  0.59472599  0.10704538     0.82000
N1956       N  0.84995912  0.59141874  0.14826792    -0.80500
C1957       C  0.87368568  0.76201294  0.16956895     0.79500
N1958       N  0.85007827  0.75947080  0.14870554    -0.78800
C1959       C  0.84656339  0.75289926  0.10740038     0.81900
N1960       N  0.86686468  0.74902242  0.08677205    -0.78800
C1961       C  0.89099258  0.75250653  0.10707080     0.82000
N1962       N  0.89428510  0.75896625  0.14831811    -0.80500
C1963       C  0.87316898  0.76139720  0.34940382     0.79500
N1964       N  0.89380618  0.75843785  0.37066567    -0.78800
C1965       C  0.89048431  0.75186691  0.41186022     0.81900
N1966       N  0.86630084  0.74822666  0.43214002    -0.78800
C1967       C  0.84596390  0.75205103  0.41153086     0.82000
N1968       N  0.84948263  0.75870029  0.37023603    -0.80500
C1969       C  0.72428277  0.61233483  0.34901969     0.79500
N1970       N  0.72707030  0.63604471  0.36990438    -0.78800
C1971       C  0.73404776  0.63972455  0.41109244     0.81900
N1972       N  0.73806975  0.61947760  0.43159475    -0.78800
C1973       C  0.73436954  0.59526294  0.41131897     0.82000
N1974       N  0.72748911  0.59180024  0.37019182    -0.80500
C1975       C  0.72299763  0.61150653  0.16918373     0.79500
N1976       N  0.72649982  0.59114043  0.14806551    -0.78800
C1977       C  0.73354663  0.59473541  0.10699773     0.81900
N1978       N  0.73713765  0.61890879  0.08673221    -0.78800
C1979       C  0.73280523  0.63896625  0.10720328     0.82000
N1980       N  0.72565905  0.63515502  0.14830870    -0.80500
O1981       O  0.76352738  0.81826457  0.09495606    -0.76000
O1982       O  0.72636661  0.81521867  0.05466272    -0.55000
C1983       C  0.74541072  0.82669103  0.08405331     0.77700
O1984       O  0.81221638  0.76809913  0.42299508    -0.60600
O1985       O  0.81024584  0.73189392  0.46437421    -0.53700
C1986       C  0.82108816  0.75040595  0.43428519     0.69700
O1987       O  0.76415835  0.81850548  0.42407589    -0.75200
O1988       O  0.72676523  0.81539556  0.46388016    -0.55800
C1989       C  0.74602686  0.82696404  0.43475994     0.75700
O1990       O  0.81276717  0.76888163  0.09571359    -0.60300
O1991       O  0.81019943  0.73192808  0.05544465    -0.53500
C1992       C  0.82147346  0.75097455  0.08484418     0.72300
Zr1993     Zr  0.77740923  0.78273387  0.07171157     2.54700
O1994       O  0.82349570  0.82876742  0.06626885    -0.80900
O1995       O  0.77850308  0.78329940  0.14758446    -0.94300
Zr1996     Zr  0.77789230  0.78303190  0.44795633     2.64700
O1997       O  0.82380781  0.82900624  0.45573202    -0.99300
O1998       O  0.78041911  0.78604526  0.37226437    -0.81300
O1999       O  0.76395858  0.79772303  0.00971906    -0.84700
O2000       O  0.79255886  0.76935062  0.00993503    -2.19400
O2001       O  0.71684181  0.67275616  0.09565690    -0.68100
O2002       O  0.75360747  0.67522767  0.05507427    -0.52700
C2003       C  0.73469109  0.66402294  0.08463899     0.70700
O2004       O  0.66685130  0.72078255  0.42394370    -0.61000
O2005       O  0.66967649  0.75794462  0.46401604    -0.53000
C2006       C  0.65820858  0.73872779  0.43483534     0.72500
O2007       O  0.71777466  0.67326333  0.42272652    -0.72400
O2008       O  0.75426971  0.67564310  0.46383577    -0.51100
C2009       C  0.73564892  0.66459717  0.43388141     0.73900
O2010       O  0.66690639  0.72118550  0.09471183    -0.67700
O2011       O  0.66977027  0.75826278  0.05440210    -0.54900
C2012       C  0.65837511  0.73921147  0.08378739     0.72200
Zr2013     Zr  0.70241837  0.70751102  0.07095078     2.77500
O2014       O  0.65639494  0.66163257  0.06330247    -0.98500
O2015       O  0.69961786  0.70504494  0.14665459    -0.79300
Zr2016     Zr  0.70302430  0.70784477  0.44714002     2.70100
O2017       O  0.65767555  0.66112936  0.45253469    -0.80500
O2018       O  0.70154696  0.70794197  0.37128853    -0.99600
Zr2019     Zr  0.71183146  0.77333544  0.00921232     2.21500
Zr2020     Zr  0.76843936  0.71718175  0.00977285     2.11100
O2021       O  0.71628225  0.69283576  0.00917898    -2.48300
O2022       O  0.68777930  0.72122624  0.00892665    -0.80300
O2023       O  0.75423469  0.73092488  0.07241901    -0.72500
O2024       O  0.72614862  0.75956674  0.44659551    -2.33500
O2025       O  0.72565661  0.75925651  0.07203487    -2.29700
O2026       O  0.75481245  0.73123978  0.44688348    -0.74300
H2027       H  0.81356647  0.77773117  0.01011657     0.77700
H2028       H  0.71991455  0.76578323  0.42228292     0.78800
H2029       H  0.70795889  0.67183303  0.00903063     0.81000
H2030       H  0.71930049  0.76542478  0.09626371     0.78600
H2031       H  0.76053563  0.77122992  0.36289567     0.41700
H2032       H  0.72098078  0.71134025  0.36237952     0.40600
H2033       H  0.64408464  0.66573607  0.46758230     0.40300
H2034       H  0.66213599  0.64699580  0.05576747     0.38200
H2035       H  0.71811767  0.72225897  0.15604095     0.41400
H2036       H  0.75892173  0.77966208  0.15613494     0.36200
H2037       H  0.81915927  0.84096828  0.04740262     0.42300
H2038       H  0.83768780  0.82344747  0.46751957     0.38700
H2039       H  0.64871028  0.65636294  0.09205457     0.43600
H2040       H  0.79205630  0.80401139  0.15507913     0.42300
H2041       H  0.83069905  0.83515082  0.42682188     0.42500
H2042       H  0.68770937  0.68734927  0.36354618     0.42800
O2043       O  0.53909006  0.81930026  0.42434922    -0.76000
O2044       O  0.57341448  0.81602420  0.46381877    -0.55000
C2045       C  0.56568679  0.82770365  0.43493510     0.77700
O2046       O  0.94070326  0.76837174  0.09549778    -0.60600
O2047       O  0.90636300  0.73197730  0.05449523    -0.53700
C2048       C  0.91409845  0.75067980  0.08429883     0.69700
O2049       O  0.53936649  0.81891730  0.09401607    -0.75200
O2050       O  0.57365647  0.81598155  0.05401741    -0.55800
C2051       C  0.56595679  0.82742404  0.08324409     0.75700
O2052       O  0.94026552  0.76810977  0.42333126    -0.60300
O2053       O  0.90611274  0.73157454  0.46441605    -0.53500
C2054       C  0.91370702  0.75026185  0.43460953     0.72300
Zr2055     Zr  0.98981622  0.78301690  0.44701692     2.54700
O2056       O  0.98900210  0.82864645  0.45224580    -0.80900
O2057       O  0.98952059  0.78382961  0.37109712    -0.94300
Zr2058     Zr  0.99002338  0.78325623  0.07080974     2.64700
O2059       O  0.98968193  0.82905468  0.06419106    -0.99300
O2060       O  0.99069059  0.78655414  0.14646317    -0.81300
O2061       O  0.51842094  0.79798953  0.00884624    -0.84700
O2062       O  0.96154321  0.76959050  0.00902566    -2.19400
O2063       O  0.94087128  0.67353220  0.42299836    -0.68100
O2064       O  0.90660471  0.67563326  0.46411514    -0.52700
C2065       C  0.91430498  0.66467773  0.43423800     0.70700
O2066       O  0.53945720  0.72148603  0.09373719    -0.61000
O2067       O  0.57374938  0.75924363  0.05440654    -0.53000
C2068       C  0.56604431  0.73981398  0.08327047     0.72500
O2069       O  0.94092253  0.67324975  0.09557809    -0.72400
O2070       O  0.90657249  0.67563390  0.05505256    -0.51100
C2071       C  0.91431814  0.66448445  0.08462296     0.73900
O2072       O  0.53931243  0.72140104  0.42469827    -0.67700
O2073       O  0.57369560  0.75890064  0.46425008    -0.54900
C2074       C  0.56591368  0.73951228  0.43533465     0.72200
Zr2075     Zr  0.99010361  0.70823199  0.44740852     2.77500
O2076       O  0.98966333  0.66193356  0.45156449    -0.98500
O2077       O  0.99122335  0.70824017  0.37161034    -0.79300
Zr2078     Zr  0.99016154  0.70826621  0.07125378     2.70100
O2079       O  0.98902692  0.66164907  0.06629816    -0.80500
O2080       O  0.99206403  0.70860911  0.14706903    -0.99600
Zr2081     Zr  0.54646116  0.77391347  0.00903680     2.21500
Zr2082     Zr  0.93373705  0.71741211  0.00951975     2.11100
O2083       O  0.96179566  0.69336246  0.00939641    -2.48300
O2084       O  0.51861769  0.72178782  0.00927561    -0.80300
O2085       O  0.96137850  0.73123509  0.44659094    -0.72500
O2086       O  0.51846855  0.75998529  0.07175578    -2.33500
O2087       O  0.51846551  0.75993287  0.44632291    -2.29700
O2088       O  0.96154967  0.73143488  0.07230540    -0.74300
H2089       H  0.94884910  0.77787990  0.00897040     0.77700
H2090       H  0.53098546  0.76625442  0.09599784     0.78800
H2091       H  0.94918063  0.67235470  0.00946826     0.81000
H2092       H  0.53098465  0.76616574  0.42208277     0.78600
H2093       H  0.49641961  0.77225485  0.15591131     0.41700
H2094       H  0.97589583  0.71177129  0.15605350     0.40600
H2095       H  0.50497454  0.66539018  0.04658798     0.40300
H2096       H  0.97044210  0.64802418  0.46397370     0.38200
H2097       H  0.98513399  0.72250093  0.36339042     0.41400
H2098       H  0.50648999  0.78184985  0.36256494     0.36200
H2099       H  0.50466738  0.84056877  0.47249778     0.42300
H2100       H  0.97003241  0.82337691  0.05308977     0.38700
H2101       H  0.98811921  0.65551634  0.42222329     0.43600
H2102       H  0.99516155  0.80422712  0.36378502     0.42300
H2103       H  0.98929594  0.83508392  0.09329209     0.42500
H2104       H  0.98555489  0.68808633  0.15488783     0.42800
O2105       O  0.76448799  0.94657474  0.42421637    -0.76000
O2106       O  0.72731730  0.91231118  0.46436718    -0.55000
C2107       C  0.74649853  0.91998817  0.43519583     0.77700
O2108       O  0.81289031  0.54497675  0.09537481    -0.60600
O2109       O  0.81070452  0.57930188  0.05452515    -0.53700
C2110       C  0.82172098  0.57157314  0.08426572     0.69700
O2111       O  0.76431456  0.94633408  0.09421718    -0.75200
O2112       O  0.72713561  0.91222652  0.05392339    -0.55800
C2113       C  0.74616627  0.91977915  0.08329816     0.75700
O2114       O  0.81293014  0.54538298  0.42326457    -0.60300
O2115       O  0.81055046  0.57957705  0.46417214    -0.53500
C2116       C  0.82165687  0.57194173  0.43444501     0.72300
Zr2117     Zr  0.77796335  0.99598792  0.44693146     2.54700
O2118       O  0.82428858  0.99655977  0.45192140    -0.80900
O2119       O  0.77954214  0.49725451  0.37108288    -0.94300
Zr2120     Zr  0.77829133  0.99570075  0.07072524     2.64700
O2121       O  0.82411956  0.99543545  0.06324890    -0.99300
O2122       O  0.78094424  0.49526542  0.14638717    -0.81300
O2123       O  0.76446187  0.96739058  0.00871274    -0.84700
O2124       O  0.79313614  0.52427725  0.00895313    -2.19400
O2125       O  0.71811574  0.54548280  0.42296153    -0.68100
O2126       O  0.75457549  0.57963945  0.46409807    -0.52700
C2127       C  0.73596758  0.57204522  0.43417054     0.70700
O2128       O  0.66710659  0.94646066  0.09386629    -0.61000
O2129       O  0.67055311  0.91221643  0.05445546    -0.53000
C2130       C  0.65884903  0.91987897  0.08335902     0.72500
O2131       O  0.71775257  0.54513830  0.09532150    -0.72400
O2132       O  0.75440401  0.57949857  0.05466597    -0.51100
C2133       C  0.73554870  0.57173264  0.08427695     0.73900
O2134       O  0.66712036  0.94680337  0.42424027    -0.67700
O2135       O  0.67023900  0.91247924  0.46392157    -0.54900
C2136       C  0.65866531  0.92020477  0.43489382     0.72200
Zr2137     Zr  0.70297293  0.99605599  0.44743347     2.77500
O2138       O  0.65722393  0.99672145  0.45264872    -0.98500
O2139       O  0.70123723  0.99574152  0.37163976    -0.79300
Zr2140     Zr  0.70322319  0.99581220  0.07134966     2.70100
O2141       O  0.65787767  0.99715756  0.06600015    -0.80500
O2142       O  0.70113567  0.99419321  0.14720797    -0.99600
Zr2143     Zr  0.71235808  0.93957733  0.00901889     2.21500
Zr2144     Zr  0.76879117  0.55210976  0.00941588     2.11100
O2145       O  0.71659224  0.52430934  0.00952102    -2.48300
O2146       O  0.68815845  0.96747997  0.00931062    -0.80300
O2147       O  0.75475170  0.52451884  0.44649557    -0.72500
O2148       O  0.72650790  0.96738004  0.07195145    -2.33500
O2149       O  0.72617864  0.96750547  0.44612605    -2.29700
O2150       O  0.75505043  0.52426597  0.07220244    -0.74300
H2151       H  0.81415863  0.53690800  0.00885305     0.77700
H2152       H  0.72023542  0.95484993  0.09619797     0.78800
H2153       H  0.70829086  0.53700413  0.00969174     0.81000
H2154       H  0.71987147  0.95498908  0.42186515     0.78600
H2155       H  0.76373327  0.99649165  0.15590767     0.41700
H2156       H  0.72027660  0.51060641  0.15639154     0.40600
H2157       H  0.64766743  0.98466333  0.04164308     0.40300
H2158       H  0.66290979  0.51646563  0.46337419     0.38200
H2159       H  0.72131255  0.50107377  0.36292110     0.41400
H2160       H  0.76002763  0.98134309  0.36220399     0.36200
H2161       H  0.81999185  0.97965877  0.46999885     0.42300
H2162       H  0.83916283  0.51616375  0.05844310     0.38700
H2163       H  0.65140099  0.99693751  0.42337924     0.43600
H2164       H  0.79317197  0.99021483  0.36354717     0.42300
H2165       H  0.82834202  0.99106254  0.09156914     0.42500
H2166       H  0.68680272  0.00038085  0.15455825     0.42800
C2167       C  0.72226517  0.58816722  0.28090776    -0.14100
C2168       C  0.71979119  0.60977823  0.30320766     0.08000
C2169       C  0.71517543  0.63008147  0.28093165    -0.14100
C2170       C  0.71471565  0.62977696  0.23732137    -0.14100
C2171       C  0.71891655  0.60920015  0.21505258     0.08000
C2172       C  0.72181963  0.58787130  0.23741254    -0.14100
H2173       H  0.72573056  0.57209364  0.29695353     0.12000
H2174       H  0.71286735  0.64683054  0.29711260     0.12000
H2175       H  0.71210958  0.64632997  0.22109378     0.12000
H2176       H  0.72499598  0.57160734  0.22137569     0.12000
C2177       C  0.89606526  0.76101692  0.23782666    -0.14100
C2178       C  0.87586278  0.76570248  0.21546409     0.08000
C2179       C  0.85644893  0.77167184  0.23767109    -0.14100
C2180       C  0.85629421  0.77149722  0.28129399    -0.14100
C2181       C  0.87555437  0.76535333  0.30356011     0.08000
C2182       C  0.89591478  0.76084861  0.28128730    -0.14100
H2183       H  0.91132629  0.75632208  0.22181980     0.12000
H2184       H  0.84079768  0.77565412  0.22137913     0.12000
H2185       H  0.84054043  0.77535970  0.29752147     0.12000
H2186       H  0.91107623  0.75603898  0.29734886     0.12000
C2187       C  0.85195009  0.58783841  0.28124468    -0.14100
C2188       C  0.87544379  0.61026025  0.30350986     0.08000
C2189       C  0.89968051  0.63165687  0.28117181    -0.14100
C2190       C  0.89969173  0.63154460  0.23758779    -0.14100
C2191       C  0.87546030  0.61004656  0.21533829     0.08000
C2192       C  0.85195392  0.58773549  0.23771790    -0.14100
H2193       H  0.83297261  0.57089468  0.29736011     0.12000
H2194       H  0.91827415  0.64909921  0.29728929     0.12000
H2195       H  0.91829827  0.64890847  0.22138424     0.12000
H2196       H  0.83297673  0.57072844  0.22168300     0.12000
C2197       C  0.58321370  0.72822548  0.23756730    -0.14100
C2198       C  0.60493388  0.72598004  0.21515978     0.08000
C2199       C  0.62578683  0.72225580  0.23751645    -0.14100
C2200       C  0.62568255  0.72206603  0.28115296    -0.14100
C2201       C  0.60473528  0.72561299  0.30354505     0.08000
C2202       C  0.58311562  0.72804648  0.28115558    -0.14100
H2203       H  0.56675297  0.73106703  0.22149753     0.12000
H2204       H  0.64271008  0.72023851  0.22134755     0.12000
H2205       H  0.64253556  0.71992120  0.29730769     0.12000
H2206       H  0.56659018  0.73077064  0.29725078     0.12000
C2207       C  0.62876390  0.90342378  0.28087686    -0.14100
C2208       C  0.60558123  0.88074928  0.30330418     0.08000
C2209       C  0.58188435  0.85861960  0.28092786    -0.14100
C2210       C  0.58196104  0.85850026  0.23730031    -0.14100
C2211       C  0.60572844  0.88051800  0.21490214     0.08000
C2212       C  0.62883493  0.90331043  0.23727891    -0.14100
H2213       H  0.64736367  0.92088578  0.29695542     0.12000
H2214       H  0.56358154  0.84086594  0.29707803     0.12000
H2215       H  0.56371302  0.84066528  0.22118386     0.12000
H2216       H  0.64748050  0.92069904  0.22117482     0.12000
C2217       C  0.76359490  0.85996338  0.23751050    -0.14100
C2218       C  0.75927025  0.88046275  0.21522809     0.08000
C2219       C  0.75656156  0.90189828  0.23764919    -0.14100
C2220       C  0.75683889  0.90202960  0.28120790    -0.14100
C2221       C  0.75980998  0.88071411  0.30354596     0.08000
C2222       C  0.76386425  0.86008941  0.28114666    -0.14100
H2223       H  0.76602421  0.84330300  0.22128223     0.12000
H2224       H  0.75324341  0.91807211  0.22161879     0.12000
H2225       H  0.75370941  0.91829555  0.29732524     0.12000
H2226       H  0.76646623  0.84350950  0.29729967     0.12000
C2227       C  0.75564791  0.87840942  0.66918684     0.79500
N2228       N  0.75335421  0.89941191  0.64774624    -0.78800
C2229       C  0.74748747  0.89643772  0.60625704     0.81900
N2230       N  0.74383990  0.87225792  0.58594719    -0.78800
C2231       C  0.74702051  0.85159691  0.60673231     0.82000
N2232       N  0.75297462  0.85476160  0.64824354    -0.80500
C2233       C  0.75650989  0.87880007  0.84963324     0.79500
N2234       N  0.75411042  0.89975013  0.87102073    -0.78800
C2235       C  0.74817791  0.89676995  0.91247283     0.81900
N2236       N  0.74456451  0.87261596  0.93283900    -0.78800
C2237       C  0.74785448  0.85199309  0.91211051     0.82000
N2238       N  0.75387342  0.85517500  0.87060921    -0.80500
C2239       C  0.60715328  0.87907977  0.84945306     0.79500
N2240       N  0.58602144  0.85569926  0.87068572    -0.78800
C2241       C  0.58889682  0.85263611  0.91219418     0.81900
N2242       N  0.61302146  0.87309555  0.93270821    -0.78800
C2243       C  0.63372245  0.89703868  0.91214860     0.82000
N2244       N  0.63072246  0.89995351  0.87065455    -0.80500
C2245       C  0.60740528  0.87870071  0.66879812     0.79500
N2246       N  0.63097295  0.89957433  0.64760272    -0.78800
C2247       C  0.63398603  0.89665858  0.60612117     0.81900
N2248       N  0.61330693  0.87271535  0.58556149    -0.78800
C2249       C  0.58919070  0.85224684  0.60607100     0.82000
N2250       N  0.58628729  0.85530696  0.64757206    -0.80500
C2251       C  0.60692382  0.72948782  0.66906004     0.79500
N2252       N  0.58615958  0.73223217  0.64767822    -0.78800
C2253       C  0.58917965  0.73811262  0.60618000     0.81900
N2254       N  0.61312700  0.74127706  0.58579304    -0.78800
C2255       C  0.63352073  0.73763176  0.60649406     0.82000
N2256       N  0.63035186  0.73170549  0.64801816    -0.80500
C2257       C  0.60661577  0.72888206  0.84967328     0.79500
N2258       N  0.58592137  0.73173896  0.87103912    -0.78800
C2259       C  0.58895251  0.73760561  0.91253042     0.81900
N2260       N  0.61285925  0.74067476  0.93294077    -0.78800
C2261       C  0.63319253  0.73692106  0.91224723     0.82000
N2262       N  0.62999636  0.73099301  0.87072268    -0.80500
C2263       C  0.87354116  0.61253204  0.84936971     0.79500
N2264       N  0.84989004  0.59181852  0.87052520    -0.78800
C2265       C  0.84653006  0.59513228  0.91172401     0.81900
N2266       N  0.86698298  0.61934263  0.93207752    -0.78800
C2267       C  0.89114975  0.63973929  0.91155115     0.82000
N2268       N  0.89439374  0.63624446  0.87031784    -0.80500
C2269       C  0.87358160  0.61218567  0.66944024     0.79500
N2270       N  0.89440570  0.63592655  0.64849700    -0.78800
C2271       C  0.89118758  0.63942803  0.60726248     0.81900
N2272       N  0.86705488  0.61898040  0.58671920    -0.78800
C2273       C  0.84662075  0.59472592  0.60704543     0.82000
N2274       N  0.84995911  0.59141866  0.64826796    -0.80500
C2275       C  0.87368564  0.76201285  0.66956900     0.79500
N2276       N  0.85007826  0.75947076  0.64870560    -0.78800
C2277       C  0.84656340  0.75289928  0.60740044     0.81900
N2278       N  0.86686468  0.74902243  0.58677209    -0.78800
C2279       C  0.89099258  0.75250653  0.60707081     0.82000
N2280       N  0.89428508  0.75896621  0.64831814    -0.80500
C2281       C  0.87316902  0.76139724  0.84940383     0.79500
N2282       N  0.89380621  0.75843787  0.87066567    -0.78800
C2283       C  0.89048438  0.75186705  0.91186026     0.81900
N2284       N  0.86630092  0.74822683  0.93214006    -0.78800
C2285       C  0.84596395  0.75205112  0.91153087     0.82000
N2286       N  0.84948271  0.75870041  0.87023605    -0.80500
C2287       C  0.72428269  0.61233482  0.84901972     0.79500
N2288       N  0.72707017  0.63604466  0.86990442    -0.78800
C2289       C  0.73404770  0.63972454  0.91109245     0.81900
N2290       N  0.73806975  0.61947762  0.93159475    -0.78800
C2291       C  0.73436954  0.59526296  0.91131898     0.82000
N2292       N  0.72748911  0.59180026  0.87019183    -0.80500
C2293       C  0.72299766  0.61150652  0.66918377     0.79500
N2294       N  0.72649984  0.59114041  0.64806553    -0.78800
C2295       C  0.73354663  0.59473540  0.60699775     0.81900
N2296       N  0.73713765  0.61890879  0.58673224    -0.78800
C2297       C  0.73280522  0.63896623  0.60720333     0.82000
N2298       N  0.72565906  0.63515499  0.64830875    -0.80500
O2299       O  0.76352737  0.81826457  0.59495608    -0.76000
O2300       O  0.72636660  0.81521866  0.55466274    -0.55000
C2301       C  0.74541072  0.82669102  0.58405331     0.77700
O2302       O  0.81221629  0.76809901  0.92299502    -0.60600
O2303       O  0.81024588  0.73189391  0.96437424    -0.53700
C2304       C  0.82108815  0.75040591  0.93428519     0.69700
O2305       O  0.76415827  0.81850545  0.92407585    -0.75200
O2306       O  0.72676521  0.81539559  0.96388020    -0.55800
C2307       C  0.74602680  0.82696403  0.93475993     0.75700
O2308       O  0.81276728  0.76888179  0.59571358    -0.60300
O2309       O  0.81019935  0.73192805  0.55544487    -0.53500
C2310       C  0.82147348  0.75097461  0.58484428     0.72300
Zr2311     Zr  0.77740921  0.78273386  0.57171161     2.54700
O2312       O  0.82349573  0.82876731  0.56626904    -0.80900
O2313       O  0.77850287  0.78329923  0.64758446    -0.94300
Zr2314     Zr  0.77789231  0.78303191  0.94795628     2.64700
O2315       O  0.82380801  0.82900611  0.95573230    -0.99300
O2316       O  0.78041914  0.78604543  0.87226441    -0.81300
O2317       O  0.76395857  0.79772304  0.50971913    -0.84700
O2318       O  0.79255887  0.76935061  0.50993509    -2.19400
O2319       O  0.71684172  0.67275608  0.59565693    -0.68100
O2320       O  0.75360743  0.67522768  0.55507434    -0.52700
C2321       C  0.73469104  0.66402292  0.58463905     0.70700
O2322       O  0.66685128  0.72078261  0.92394378    -0.61000
O2323       O  0.66967664  0.75794485  0.96401586    -0.53000
C2324       C  0.65820865  0.73872793  0.93483528     0.72500
O2325       O  0.71777462  0.67326331  0.92272653    -0.72400
O2326       O  0.75426976  0.67564315  0.96383565    -0.51100
C2327       C  0.73564890  0.66459717  0.93388137     0.73900
O2328       O  0.66690639  0.72118549  0.59471185    -0.67700
O2329       O  0.66977027  0.75826278  0.55440214    -0.54900
C2330       C  0.65837511  0.73921146  0.58378741     0.72200
Zr2331     Zr  0.70241832  0.70751095  0.57095080     2.77500
O2332       O  0.65639488  0.66163251  0.56330250    -0.98500
O2333       O  0.69961813  0.70504502  0.64665466    -0.79300
Zr2334     Zr  0.70302428  0.70784477  0.94714004     2.70100
O2335       O  0.65767554  0.66112937  0.95253504    -0.80500
O2336       O  0.70154654  0.70794171  0.87128862    -0.99600
Zr2337     Zr  0.71183145  0.77333542  0.50921239     2.21500
Zr2338     Zr  0.76843936  0.71718175  0.50977290     2.11100
O2339       O  0.71628225  0.69283575  0.50917898    -2.48300
O2340       O  0.68777930  0.72122622  0.50892667    -0.80300
O2341       O  0.75423465  0.73092486  0.57241903    -0.72500
O2342       O  0.72614861  0.75956675  0.94659533    -2.33500
O2343       O  0.72565659  0.75925645  0.57203491    -2.29700
O2344       O  0.75481244  0.73123978  0.94688346    -0.74300
H2345       H  0.81356648  0.77773117  0.51011662     0.77700
H2346       H  0.71991456  0.76578321  0.92228267     0.78800
H2347       H  0.70795891  0.67183302  0.50903059     0.81000
H2348       H  0.71930046  0.76542473  0.59626374     0.78600
H2349       H  0.76053956  0.77122041  0.86289542     0.41700
H2350       H  0.72097972  0.71133828  0.86237941     0.40600
H2351       H  0.64408450  0.66573619  0.96758206     0.40300
H2352       H  0.66213594  0.64699575  0.55576750     0.38200
H2353       H  0.71811809  0.72225890  0.65604085     0.41400
H2354       H  0.75892158  0.77966214  0.65613495     0.36200
H2355       H  0.81915926  0.84096827  0.54740299     0.42300
H2356       H  0.83768804  0.82344730  0.96751960     0.38700
H2357       H  0.64871025  0.65636291  0.59205462     0.43600
H2358       H  0.79205624  0.80401120  0.65507908     0.42300
H2359       H  0.83069919  0.83515083  0.92682219     0.42500
H2360       H  0.68770764  0.68734926  0.86354655     0.42800
O2361       O  0.53909006  0.81930028  0.92434921    -0.76000
O2362       O  0.57341449  0.81602421  0.96381877    -0.55000
C2363       C  0.56568679  0.82770365  0.93493508     0.77700
O2364       O  0.94070327  0.76837179  0.59549764    -0.60600
O2365       O  0.90636297  0.73197727  0.55449523    -0.53700
C2366       C  0.91409844  0.75067980  0.58429878     0.69700
O2367       O  0.53936651  0.81891732  0.59401611    -0.75200
O2368       O  0.57365647  0.81598154  0.55401742    -0.55800
C2369       C  0.56595681  0.82742404  0.58324413     0.75700
O2370       O  0.94026554  0.76810978  0.92333127    -0.60300
O2371       O  0.90611273  0.73157455  0.96441605    -0.53500
C2372       C  0.91370704  0.75026189  0.93460956     0.72300
Zr2373     Zr  0.98981623  0.78301690  0.94701687     2.54700
O2374       O  0.98900215  0.82864648  0.95224588    -0.80900
O2375       O  0.98952058  0.78382965  0.87109705    -0.94300
Zr2376     Zr  0.99002344  0.78325633  0.57080973     2.64700
O2377       O  0.98968183  0.82905468  0.56419068    -0.99300
O2378       O  0.99069066  0.78655443  0.64646313    -0.81300
O2379       O  0.51842096  0.79798954  0.50884632    -0.84700
O2380       O  0.96154326  0.76959047  0.50902572    -2.19400
O2381       O  0.94087127  0.67353220  0.92299839    -0.68100
O2382       O  0.90660470  0.67563326  0.96411516    -0.52700
C2383       C  0.91430497  0.66467773  0.93423803     0.70700
O2384       O  0.53945721  0.72148604  0.59373722    -0.61000
O2385       O  0.57374937  0.75924363  0.55440655    -0.53000
C2386       C  0.56604431  0.73981398  0.58327048     0.72500
O2387       O  0.94092248  0.67324975  0.59557805    -0.72400
O2388       O  0.90657240  0.67563391  0.55505264    -0.51100
C2389       C  0.91431807  0.66448443  0.58462298     0.73900
O2390       O  0.53931245  0.72140108  0.92469831    -0.67700
O2391       O  0.57369566  0.75890063  0.96425015    -0.54900
C2392       C  0.56591372  0.73951228  0.93533470     0.72200
Zr2393     Zr  0.99010360  0.70823199  0.94740853     2.77500
O2394       O  0.98966336  0.66193356  0.95156418    -0.98500
O2395       O  0.99122335  0.70824018  0.87161036    -0.79300
Zr2396     Zr  0.99016153  0.70826623  0.57125382     2.70100
O2397       O  0.98902683  0.66164905  0.56629858    -0.80500
O2398       O  0.99206401  0.70860893  0.64706911    -0.99600
Zr2399     Zr  0.54646114  0.77391346  0.50903682     2.21500
Zr2400     Zr  0.93373705  0.71741210  0.50951978     2.11100
O2401       O  0.96179566  0.69336246  0.50939643    -2.48300
O2402       O  0.51861769  0.72178782  0.50927555    -0.80300
O2403       O  0.96137851  0.73123509  0.94659092    -0.72500
O2404       O  0.51846855  0.75998530  0.57175580    -2.33500
O2405       O  0.51846559  0.75993294  0.94632279    -2.29700
O2406       O  0.96154971  0.73143496  0.57230543    -0.74300
H2407       H  0.94884916  0.77787985  0.50897045     0.77700
H2408       H  0.53098546  0.76625442  0.59599787     0.78800
H2409       H  0.94918063  0.67235471  0.50946829     0.81000
H2410       H  0.53098481  0.76616589  0.92208266     0.78600
H2411       H  0.49641959  0.77225492  0.65591144     0.41700
H2412       H  0.97589603  0.71177144  0.65605351     0.40600
H2413       H  0.50497471  0.66539024  0.54658812     0.40300
H2414       H  0.97044227  0.64802423  0.96397382     0.38200
H2415       H  0.98513398  0.72250093  0.86339045     0.41400
H2416       H  0.50648985  0.78184967  0.86256493     0.36200
H2417       H  0.50466721  0.84056867  0.97249759     0.42300
H2418       H  0.97003216  0.82337680  0.55308992     0.38700
H2419       H  0.98811888  0.65551622  0.92222298     0.43600
H2420       H  0.99516178  0.80422722  0.86378498     0.42300
H2421       H  0.98929628  0.83508418  0.59329167     0.42500
H2422       H  0.98555463  0.68808612  0.65488795     0.42800
O2423       O  0.76448798  0.94657475  0.92421634    -0.76000
O2424       O  0.72731729  0.91231118  0.96436714    -0.55000
C2425       C  0.74649853  0.91998817  0.93519580     0.77700
O2426       O  0.81289028  0.54497672  0.59537484    -0.60600
O2427       O  0.81070451  0.57930187  0.55452518    -0.53700
C2428       C  0.82172095  0.57157311  0.58426576     0.69700
O2429       O  0.76431458  0.94633412  0.59421722    -0.75200
O2430       O  0.72713563  0.91222656  0.55392343    -0.55800
C2431       C  0.74616630  0.91977919  0.58329819     0.75700
O2432       O  0.81293014  0.54538298  0.92326460    -0.60300
O2433       O  0.81055046  0.57957705  0.96417216    -0.53500
C2434       C  0.82165686  0.57194173  0.93444504     0.72300
Zr2435     Zr  0.77796336  0.99598792  0.94693146     2.54700
O2436       O  0.82428858  0.99655977  0.95192144    -0.80900
O2437       O  0.77954220  0.49725459  0.87108295    -0.94300
Zr2438     Zr  0.77829133  0.99570077  0.57072524     2.64700
O2439       O  0.82411954  0.99543552  0.56324849    -0.99300
O2440       O  0.78094414  0.49526543  0.64638723    -0.81300
O2441       O  0.76446187  0.96739059  0.50871275    -0.84700
O2442       O  0.79313613  0.52427725  0.50895313    -2.19400
O2443       O  0.71811573  0.54548280  0.92296156    -0.68100
O2444       O  0.75457549  0.57963945  0.96409810    -0.52700
C2445       C  0.73596758  0.57204523  0.93417056     0.70700
O2446       O  0.66710659  0.94646067  0.59386631    -0.61000
O2447       O  0.67055311  0.91221644  0.55445548    -0.53000
C2448       C  0.65884903  0.91987898  0.58335904     0.72500
O2449       O  0.71775257  0.54513829  0.59532152    -0.72400
O2450       O  0.75440401  0.57949857  0.55466598    -0.51100
C2451       C  0.73554870  0.57173264  0.58427696     0.73900
O2452       O  0.66712035  0.94680338  0.92424030    -0.67700
O2453       O  0.67023897  0.91247923  0.96392157    -0.54900
C2454       C  0.65866527  0.92020477  0.93489385     0.72200
Zr2455     Zr  0.70297293  0.99605600  0.94743343     2.77500
O2456       O  0.65722394  0.99672146  0.95264874    -0.98500
O2457       O  0.70123753  0.99574155  0.87163959    -0.79300
Zr2458     Zr  0.70322319  0.99581221  0.57134968     2.70100
O2459       O  0.65787765  0.99715754  0.56600014    -0.80500
O2460       O  0.70113576  0.99419328  0.64720802    -0.99600
Zr2461     Zr  0.71235808  0.93957734  0.50901891     2.21500
Zr2462     Zr  0.76879117  0.55210977  0.50941585     2.11100
O2463       O  0.71659218  0.52430943  0.50952101    -2.48300
O2464       O  0.68815844  0.96747997  0.50931065    -0.80300
O2465       O  0.75475169  0.52451884  0.94649559    -0.72500
O2466       O  0.72650790  0.96738004  0.57195148    -2.33500
O2467       O  0.72617864  0.96750548  0.94612606    -2.29700
O2468       O  0.75505041  0.52426594  0.57220231    -0.74300
H2469       H  0.81415862  0.53690801  0.50885308     0.77700
H2470       H  0.72023541  0.95484993  0.59619801     0.78800
H2471       H  0.70829078  0.53700426  0.50969178     0.81000
H2472       H  0.71987147  0.95498908  0.92186516     0.78600
H2473       H  0.76373308  0.99649144  0.65590767     0.41700
H2474       H  0.72027639  0.51060656  0.65639157     0.40600
H2475       H  0.64766728  0.98466307  0.54164333     0.40300
H2476       H  0.66290966  0.51646536  0.96337474     0.38200
H2477       H  0.72131283  0.50107398  0.86292127     0.41400
H2478       H  0.76002777  0.98134330  0.86220395     0.36200
H2479       H  0.81999185  0.97965877  0.96999888     0.42300
H2480       H  0.83916290  0.51616392  0.55844305     0.38700
H2481       H  0.65140105  0.99693761  0.92337926     0.43600
H2482       H  0.79317197  0.99021451  0.86354725     0.42300
H2483       H  0.82834201  0.99106257  0.59156870     0.42500
H2484       H  0.68680270  0.00038077  0.65455826     0.42800
C2485       C  0.72226513  0.58816722  0.78090782    -0.14100
C2486       C  0.71979109  0.60977821  0.80320770     0.08000
C2487       C  0.71517538  0.63008147  0.78093166    -0.14100
C2488       C  0.71471564  0.62977693  0.73732138    -0.14100
C2489       C  0.71891656  0.60920012  0.71505262     0.08000
C2490       C  0.72181963  0.58787130  0.73741260    -0.14100
H2491       H  0.72573056  0.57209368  0.79695361     0.12000
H2492       H  0.71286734  0.64683057  0.79711257     0.12000
H2493       H  0.71210957  0.64632996  0.72109376     0.12000
H2494       H  0.72499601  0.57160735  0.72137578     0.12000
C2495       C  0.89606518  0.76101679  0.73782668    -0.14100
C2496       C  0.87586274  0.76570240  0.71546412     0.08000
C2497       C  0.85644895  0.77167184  0.73767112    -0.14100
C2498       C  0.85629424  0.77149722  0.78129400    -0.14100
C2499       C  0.87555440  0.76535333  0.80356010     0.08000
C2500       C  0.89591477  0.76084858  0.78128731    -0.14100
H2501       H  0.91132616  0.75632186  0.72181983     0.12000
H2502       H  0.84079769  0.77565415  0.72137917     0.12000
H2503       H  0.84054045  0.77535973  0.79752148     0.12000
H2504       H  0.91107625  0.75603899  0.79734887     0.12000
C2505       C  0.85195009  0.58783841  0.78124472    -0.14100
C2506       C  0.87544379  0.61026025  0.80350989     0.08000
C2507       C  0.89968051  0.63165687  0.78117184    -0.14100
C2508       C  0.89969173  0.63154460  0.73758781    -0.14100
C2509       C  0.87546029  0.61004655  0.71533833     0.08000
C2510       C  0.85195392  0.58773549  0.73771794    -0.14100
H2511       H  0.83297260  0.57089468  0.79736015     0.12000
H2512       H  0.91827415  0.64909921  0.79728931     0.12000
H2513       H  0.91829826  0.64890847  0.72138426     0.12000
H2514       H  0.83297672  0.57072843  0.72168304     0.12000
C2515       C  0.58321378  0.72822561  0.73756730    -0.14100
C2516       C  0.60493389  0.72598006  0.71515978     0.08000
C2517       C  0.62578682  0.72225580  0.73751645    -0.14100
C2518       C  0.62568254  0.72206603  0.78115297    -0.14100
C2519       C  0.60473527  0.72561300  0.80354506     0.08000
C2520       C  0.58311565  0.72804654  0.78115559    -0.14100
H2521       H  0.56675310  0.73106725  0.72149753     0.12000
H2522       H  0.64271006  0.72023848  0.72134754     0.12000
H2523       H  0.64253555  0.71992119  0.79730770     0.12000
H2524       H  0.56659021  0.73077070  0.79725080     0.12000
C2525       C  0.62876386  0.90342377  0.78087686    -0.14100
C2526       C  0.60558122  0.88074925  0.80330416     0.08000
C2527       C  0.58188437  0.85861955  0.78092782    -0.14100
C2528       C  0.58196105  0.85850023  0.73730029    -0.14100
C2529       C  0.60572843  0.88051799  0.71490215     0.08000
C2530       C  0.62883490  0.90331043  0.73727892    -0.14100
H2531       H  0.64736358  0.92088583  0.79695542     0.12000
H2532       H  0.56358154  0.84086583  0.79707798     0.12000
H2533       H  0.56371301  0.84066523  0.72118383     0.12000
H2534       H  0.64748046  0.92069909  0.72117485     0.12000
C2535       C  0.76359492  0.85996339  0.73751052    -0.14100
C2536       C  0.75927024  0.88046273  0.71522810     0.08000
C2537       C  0.75656156  0.90189828  0.73764920    -0.14100
C2538       C  0.75683891  0.90202962  0.78120792    -0.14100
C2539       C  0.75981008  0.88071417  0.80354597     0.08000
C2540       C  0.76386437  0.86008950  0.78114667    -0.14100
H2541       H  0.76602419  0.84330297  0.72128228     0.12000
H2542       H  0.75324338  0.91807209  0.72161879     0.12000
H2543       H  0.75370937  0.91829554  0.79732525     0.12000
H2544       H  0.76646638  0.84350959  0.79729971     0.12000
loop_ 
_geom_bond_atom_site_label_1 
_geom_bond_atom_site_label_2 
_geom_bond_distance 
_geom_bond_site_symmetry_2 
_ccdc_geom_bond_type 
C1            N2   1.360       .  A
C1            N6   1.361       .  A
C1          C310   1.487       .  S
N2            C3   1.358       .  A
C3            N4   1.357       .  A
C3          C205   1.466       .  S
N4            C5   1.358       .  A
C5            N6   1.360       .  A
C5           C75   1.467       .  S
C7            N8   1.359       .  A
C7           N12   1.361       .  A
C7          C313   1.487       .  S
N8            C9   1.358       .  A
C9           N10   1.358       .  A
C9          C199   1.466       .  S
N10          C11   1.358       .  A
C11          N12   1.360       .  A
C11          C81   1.467       .  S
C13          N14   1.361       .  A
C13          N18   1.360       .  A
C13         C300   1.489       .  S
N14          C15   1.360       .  A
C15          N16   1.357       .  A
C15         C137   1.466       .  S
N16          C17   1.357       .  A
C17          N18   1.359       .  A
C17         C228   1.465       .  S
C19          N20   1.360       .  A
C19          N24   1.361       .  A
C19         C303   1.488       .  S
N20          C21   1.359       .  A
C21          N22   1.357       .  A
C21         C222   1.465       .  S
N22          C23   1.357       .  A
C23          N24   1.360       .  A
C23         C143   1.465       .  S
C25          N26   1.360       .  A
C25          N30   1.361       .  A
C25         C290   1.488       .  S
N26          C27   1.359       .  A
C27          N28   1.357       .  A
C27         C160   1.465       .  S
N28          C29   1.357       .  A
C29          N30   1.360       .  A
C29         C104   1.465       .  S
C31          N32   1.360       .  A
C31          N36   1.361       .  A
C31         C293   1.488       .  S
N32          C33   1.358       .  A
C33          N34   1.357       .  A
C33         C166   1.464       .  S
N34          C35   1.358       .  A
C35          N36   1.360       .  A
C35          C98   1.466       .  S
C37          N38   1.359       .  A
C37          N42   1.360       .  A
C37         C280   1.484       .  S
N38          C39   1.357       .  A
C39          N40   1.357       .  A
C39         C208   1.464       .  S
N40          C41   1.358       .  A
C41          N42   1.359       .  A
C41         C157   1.464       .  S
C43          N44   1.360       .  A
C43          N48   1.359       .  A
C43         C283   1.485       .  S
N44          C45   1.359       .  A
C45          N46   1.358       .  A
C45         C163   1.466       .  S
N46          C47   1.358       .  A
C47          N48   1.357       .  A
C47         C202   1.465       .  S
C49          N50   1.360       .  A
C49          N54   1.359       .  A
C49         C270   1.483       .  S
N50          C51   1.359       .  A
C51          N52   1.359       .  A
C51          C84   1.467       .  S
N52          C53   1.358       .  A
C53          N54   1.356       .  A
C53         C140   1.465       .  S
C55          N56   1.358       .  A
C55          N60   1.360       .  A
C55         C273   1.483       .  S
N56          C57   1.356       .  A
C57          N58   1.357       .  A
C57         C146   1.464       .  S
N58          C59   1.358       .  A
C59          N60   1.360       .  A
C59          C78   1.466       .  S
C61          N62   1.360       .  A
C61          N66   1.359       .  A
C61         C260   1.485       .  S
N62          C63   1.360       .  A
C63          N64   1.358       .  A
C63         C101   1.467       .  S
N64          C65   1.358       .  A
C65          N66   1.357       .  A
C65         C219   1.466       .  S
C67          N68   1.359       .  A
C67          N72   1.360       .  A
C67         C263   1.484       .  S
N68          C69   1.357       .  A
C69          N70   1.357       .  A
C69         C225   1.464       .  S
N70          C71   1.358       .  A
C71          N72   1.359       .  A
C71          C95   1.466       .  S
O73         Zr85   2.445       .  S
O73          C75   1.288       .  A
O74        Zr111   2.429       .  S
O74          C75   1.287       .  A
O76         Zr88   2.443       .  S
O76          C78   1.288       .  A
O77        Zr430   2.424       .  S
O77          C78   1.286       .  A
O79         Zr88   2.443       .  S
O79          C81   1.288       .  A
O80        Zr429   2.431       .  S
O80          C81   1.287       .  A
O82         Zr85   2.443       .  S
O82          C84   1.288       .  A
O83        Zr112   2.427       .  S
O83          C84   1.287       .  A
Zr85         O86   2.434       .  S
Zr85         O87   2.436       .  S
Zr85         O91   2.377       .  S
Zr85         O92   2.373       .  S
Zr85        O115   2.370       .  S
Zr85        O117   2.367       .  S
O86         H129   0.990       .  S
O87         H128   0.990       .  S
O87         H132   0.990       .  S
Zr88         O89   2.435       .  S
Zr88         O90   2.434       .  S
Zr88        O116   2.367       .  S
Zr88        O118   2.370       .  S
Zr88        O410   2.374       .  S
Zr88        O409   2.375       .  S
O89         H130   0.990       .  S
O89         H133   0.990       .  S
O90         H123   0.990       .  S
O91        Zr111   2.382       .  S
O91        Zr406   2.375   1_554  S
O92        Zr112   2.384       .  S
O92        Zr406   2.374   1_554  S
O92         H119   0.966       .  S
O93        Zr105   2.442       .  S
O93          C95   1.287       .  A
O94        Zr112   2.427       .  S
O94          C95   1.286       .  A
O96        Zr108   2.442       .  S
O96          C98   1.288       .  A
O97        Zr429   2.429       .  S
O97          C98   1.287       .  A
O99        Zr108   2.443       .  S
O99         C101   1.287       .  A
O100       Zr430   2.428       .  S
O100        C101   1.287       .  A
O102       Zr105   2.442       .  S
O102        C104   1.287       .  A
O103       Zr111   2.427       .  S
O103        C104   1.287       .  A
Zr105       O106   2.435       .  S
Zr105       O107   2.434       .  S
Zr105       O113   2.373       .  S
Zr105       O114   2.375       .  S
Zr105       O117   2.367       .  S
Zr105       O115   2.370       .  S
O106        H126   0.990       .  S
O106        H131   0.990       .  S
O107        H127   0.990       .  S
Zr108       O109   2.434       .  S
Zr108       O110   2.436       .  S
Zr108       O118   2.368       .  S
Zr108       O116   2.366       .  S
Zr108       O432   2.376       .  S
Zr108       O431   2.374       .  S
O109        H125   0.990       .  S
O110        H124   0.990       .  S
O110        H134   0.990       .  S
Zr111       O398   2.431   1_554  S
Zr111       O415   2.429   1_554  S
Zr111       O114   2.382       .  S
Zr111       O117   2.386       .  S
Zr111       O434   2.384   1_554  S
Zr112       O395   2.424   1_554  S
Zr112       O418   2.428   1_554  S
Zr112       O113   2.383       .  S
Zr112       O115   2.382       .  S
Zr112       O436   2.382   1_554  S
O113       Zr426   2.374   1_554  S
O113        H121   0.966       .  S
O114       Zr426   2.376   1_554  S
O116       Zr429   2.384       .  S
O116        H120   0.966       .  S
O117        H122   0.965       .  S
O118       Zr430   2.382       .  S
O135      Zr1419   2.443   1_455  S
O135        C137   1.287       .  A
O136       Zr491   2.429       .  S
O136        C137   1.287       .  A
O138       Zr150   2.443       .  S
O138        C140   1.288       .  A
O139       Zr174   2.423       .  S
O139        C140   1.285       .  A
O141      Zr1422   2.442   1_455  S
O141        C143   1.288       .  A
O142       Zr173   2.425       .  S
O142        C143   1.286       .  A
O144       Zr147   2.443       .  S
O144        C146   1.288       .  A
O145       Zr492   2.422       .  S
O145        C146   1.285       .  A
Zr147      O1407   2.443       .  S
Zr147       O148   2.434       .  S
Zr147       O149   2.437       .  S
Zr147       O177   2.368       .  S
Zr147      O1743   2.376       .  S
Zr147       O472   2.373       .  S
Zr147      O1451   2.368       .  S
O148       H1463   0.990       .  S
O149        H194   0.990       .  S
O149       H1462   0.990       .  S
Zr150      O1413   2.442       .  S
Zr150       O151   2.434       .  S
Zr150       O152   2.433       .  S
Zr150       O154   2.372       .  S
Zr150       O180   2.370       .  S
Zr150      O1425   2.374       .  S
Zr150      O1450   2.367       .  S
O151        H192   0.990       .  S
O151        H195   0.990       .  S
O152       H1457   0.990       .  S
O153       Zr173   2.383       .  S
O153      Zr1737   2.376   1_454  S
O153      Zr1422   2.374   1_455  S
O154       Zr174   2.384       .  S
O154       Zr465   2.373   1_554  S
O154        H181   0.966       .  S
O155       Zr167   2.439       .  S
O155        C157   1.287       .  A
O156       Zr492   2.423       .  S
O156        C157   1.286       .  A
O158      Zr1442   2.440   1_455  S
O158        C160   1.287       .  A
O159       Zr173   2.430       .  S
O159        C160   1.287       .  A
O161       Zr170   2.442       .  S
O161        C163   1.287       .  A
O162       Zr174   2.426       .  S
O162        C163   1.286       .  A
O164      Zr1439   2.438   1_455  S
O164        C166   1.287       .  A
O165       Zr491   2.428       .  S
O165        C166   1.287       .  A
Zr167      O1436   2.438       .  S
Zr167       O168   2.434       .  S
Zr167       O169   2.434       .  S
Zr167       O177   2.368       .  S
Zr167       O493   2.373       .  S
Zr167      O1766   2.375       .  S
Zr167      O1451   2.365       .  S
O168        H188   0.990       .  S
O168        H193   0.990       .  S
O169        H189   0.990       .  S
Zr170      O1430   2.440       .  S
Zr170       O171   2.435       .  S
Zr170       O172   2.435       .  S
Zr170       O175   2.371       .  S
Zr170       O180   2.370       .  S
Zr170      O1448   2.376       .  S
Zr170      O1450   2.365       .  S
O171       H1459   0.990       .  S
O172        H186   0.990       .  S
O172        H196   0.990       .  S
Zr173       O454   2.429   1_554  S
Zr173       O483   2.428   1_554  S
Zr173       O176   2.382       .  S
Zr173       O178   2.384       .  S
Zr173       O497   2.384   1_554  S
Zr174       O463   2.422   1_554  S
Zr174       O474   2.423   1_554  S
Zr174       O175   2.383       .  S
Zr174       O180   2.382       .  S
Zr174       O495   2.382   1_554  S
O175       Zr485   2.373   1_554  S
O175        H183   0.966       .  S
O176      Zr1757   2.375   1_454  S
O176      Zr1442   2.376   1_455  S
O177       Zr492   2.382       .  S
O178      Zr1422   2.367   1_455  S
O178      Zr1442   2.365   1_455  S
O178        H182   0.965       .  S
O179      Zr1419   2.368   1_455  S
O179      Zr1439   2.365   1_455  S
O179       Zr491   2.384       .  S
O179        H184   0.965       .  S
H185       O1424   0.990       .  S
H187       O1443   0.990   1_455  S
H190       O1421   0.990   1_455  S
H191       O1420   0.990   1_455  S
O197       Zr209   2.444       .  S
O197        C199   1.288       .  A
O198       Zr553   2.425       .  S
O198        C199   1.286       .  A
O200       Zr848   2.442   1_545  S
O200        C202   1.288       .  A
O201       Zr236   2.422       .  S
O201        C202   1.285       .  A
O203       Zr212   2.443       .  S
O203        C205   1.288       .  A
O204       Zr235   2.427       .  S
O204        C205   1.286       .  A
O206       Zr845   2.440   1_545  S
O206        C208   1.287       .  A
O207       Zr554   2.422       .  S
O207        C208   1.285       .  A
Zr209       O842   2.440       .  S
Zr209       O210   2.434       .  S
Zr209       O847   2.436       .  S
Zr209       O241   2.368       .  S
Zr209       O533   2.375       .  S
Zr209      O1170   2.374       .  S
Zr209       O875   2.368       .  S
O210        H253   0.990       .  S
O211       Zr845   2.436       .  S
O211        H888   0.990       .  S
O211        H892   0.990       .  S
Zr212       O836   2.442       .  S
Zr212       O213   2.436       .  S
Zr212       O850   2.433       .  S
Zr212       O215   2.373       .  S
Zr212       O240   2.368       .  S
Zr212       O852   2.374       .  S
Zr212       O878   2.371       .  S
O213        H257   0.990       .  S
O213        H890   0.990       .  S
O214       Zr848   2.433       .  S
O214        H883   0.990       .  S
O215       Zr235   2.381       .  S
O215       Zr527   2.375   1_554  S
O216       Zr236   2.386       .  S
O216      Zr1163   2.374   1_544  S
O216       Zr848   2.374   1_545  S
O216        H243   0.966       .  S
O217       Zr865   2.443   1_545  S
O217        C219   1.288       .  A
O218       Zr554   2.424       .  S
O218        C219   1.286       .  A
O220       Zr232   2.442       .  S
O220        C222   1.288       .  A
O221       Zr235   2.426       .  S
O221        C222   1.286       .  A
O223       Zr868   2.440   1_545  S
O223        C225   1.287       .  A
O224       Zr236   2.423       .  S
O224        C225   1.285       .  A
O226       Zr229   2.441       .  S
O226        C228   1.287       .  A
O227       Zr553   2.428       .  S
O227        C228   1.287       .  A
Zr229       O853   2.443       .  S
Zr229       O230   2.436       .  S
Zr229       O231   2.434       .  S
Zr229       O241   2.369       .  S
Zr229      O1191   2.374       .  S
Zr229       O556   2.376       .  S
Zr229       O875   2.368       .  S
O230        H255   0.990       .  S
O230        H886   0.990       .  S
O231        H887   0.990       .  S
Zr232       O859   2.440       .  S
Zr232       O233   2.434       .  S
Zr232       O234   2.437       .  S
Zr232       O238   2.375       .  S
Zr232       O240   2.367       .  S
Zr232       O873   2.373       .  S
Zr232       O878   2.370       .  S
O233        H249   0.990       .  S
O234        H258   0.990       .  S
O234        H884   0.990       .  S
Zr235       O516   2.425   1_554  S
Zr235       O545   2.428   1_554  S
Zr235       O238   2.382       .  S
Zr235       O240   2.386       .  S
Zr235       O559   2.388   1_554  S
Zr236       O525   2.422   1_554  S
Zr236       O536   2.424   1_554  S
Zr236       O237   2.385       .  S
Zr236       O242   2.383       .  S
Zr236       O557   2.380   1_554  S
O237      Zr1183   2.374   1_544  S
O237       Zr868   2.373   1_545  S
O237        H245   0.966       .  S
O238       Zr547   2.376   1_554  S
O239       Zr845   2.368   1_545  S
O239       Zr865   2.368   1_545  S
O239       Zr554   2.380       .  S
O240        H244   0.966       .  S
O241       Zr553   2.388       .  S
O241        H246   0.966       .  S
O242       Zr848   2.371   1_545  S
O242       Zr868   2.370   1_545  S
H247        O850   0.990       .  S
H248        O870   0.990   1_545  S
H250        O866   0.990   1_545  S
H251        O867   0.990   1_545  S
H252        O847   0.990       .  S
H254        O849   0.990   1_545  S
H256        O847   0.990       .  S
C259        C260   1.406       .  A
C259        C264   1.396       .  A
C259        H265   1.083       .  S
C260        C261   1.406       .  A
C261        C262   1.400       .  A
C261        H266   1.083       .  S
C262        C263   1.407       .  A
C262        H267   1.083       .  S
C263        C264   1.406       .  A
C264        H268   1.083       .  S
C269        C270   1.405       .  A
C269        C274   1.395       .  A
C269        H275   1.083       .  S
C270        C271   1.407       .  A
C271        C272   1.400       .  A
C271        H276   1.083       .  S
C272        C273   1.406       .  A
C272        H277   1.083       .  S
C273        C274   1.406       .  A
C274        H278   1.083       .  S
C279        C280   1.406       .  A
C279        C284   1.397       .  A
C279        H285   1.083       .  S
C280        C281   1.406       .  A
C281        C282   1.399       .  A
C281        H286   1.083       .  S
C282        C283   1.407       .  A
C282        H287   1.083       .  S
C283        C284   1.406       .  A
C284        H288   1.083       .  S
C289        C290   1.407       .  A
C289        C294   1.399       .  A
C289        H295   1.083       .  S
C290        C291   1.407       .  A
C291        C292   1.401       .  A
C291        H296   1.083       .  S
C292        C293   1.407       .  A
C292        H297   1.083       .  S
C293        C294   1.407       .  A
C294        H298   1.083       .  S
C299        C300   1.407       .  A
C299        C304   1.399       .  A
C299        H305   1.083       .  S
C300        C301   1.407       .  A
C301        C302   1.400       .  A
C301        H306   1.083       .  S
C302        C303   1.407       .  A
C302        H307   1.083       .  S
C303        C304   1.407       .  A
C304        H308   1.083       .  S
C309        C310   1.407       .  A
C309        C314   1.401       .  A
C309        H315   1.083       .  S
C310        C311   1.406       .  A
C311        C312   1.398       .  A
C311        H316   1.083       .  S
C312        C313   1.407       .  A
C312        H317   1.083       .  S
C313        C314   1.407       .  A
C314        H318   1.083       .  S
C319        N320   1.360       .  A
C319        N324   1.361       .  A
C319        C628   1.487       .  S
N320        C321   1.358       .  A
C321        N322   1.357       .  A
C321        C523   1.466       .  S
N322        C323   1.358       .  A
C323        N324   1.360       .  A
C323        C393   1.467       .  S
C325        N326   1.359       .  A
C325        N330   1.361       .  A
C325        C631   1.487       .  S
N326        C327   1.358       .  A
C327        N328   1.358       .  A
C327        C517   1.466       .  S
N328        C329   1.358       .  A
C329        N330   1.360       .  A
C329        C399   1.467       .  S
C331        N332   1.361       .  A
C331        N336   1.360       .  A
C331        C618   1.489       .  S
N332        C333   1.360       .  A
C333        N334   1.357       .  A
C333        C455   1.466       .  S
N334        C335   1.357       .  A
C335        N336   1.359       .  A
C335        C546   1.465       .  S
C337        N338   1.360       .  A
C337        N342   1.361       .  A
C337        C621   1.488       .  S
N338        C339   1.359       .  A
C339        N340   1.357       .  A
C339        C540   1.465       .  S
N340        C341   1.357       .  A
C341        N342   1.360       .  A
C341        C461   1.465       .  S
C343        N344   1.360       .  A
C343        N348   1.361       .  A
C343        C608   1.488       .  S
N344        C345   1.359       .  A
C345        N346   1.357       .  A
C345        C478   1.465       .  S
N346        C347   1.357       .  A
C347        N348   1.360       .  A
C347        C422   1.465       .  S
C349        N350   1.360       .  A
C349        N354   1.361       .  A
C349        C611   1.488       .  S
N350        C351   1.358       .  A
C351        N352   1.357       .  A
C351        C484   1.464       .  S
N352        C353   1.358       .  A
C353        N354   1.360       .  A
C353        C416   1.466       .  S
C355        N356   1.359       .  A
C355        N360   1.360       .  A
C355        C598   1.484       .  S
N356        C357   1.357       .  A
C357        N358   1.357       .  A
C357        C526   1.464       .  S
N358        C359   1.358       .  A
C359        N360   1.359       .  A
C359        C475   1.464       .  S
C361        N362   1.360       .  A
C361        N366   1.359       .  A
C361        C601   1.485       .  S
N362        C363   1.359       .  A
C363        N364   1.358       .  A
C363        C481   1.466       .  S
N364        C365   1.358       .  A
C365        N366   1.357       .  A
C365        C520   1.465       .  S
C367        N368   1.360       .  A
C367        N372   1.359       .  A
C367        C588   1.483       .  S
N368        C369   1.359       .  A
C369        N370   1.359       .  A
C369        C402   1.467       .  S
N370        C371   1.358       .  A
C371        N372   1.356       .  A
C371        C458   1.465       .  S
C373        N374   1.358       .  A
C373        N378   1.360       .  A
C373        C591   1.483       .  S
N374        C375   1.356       .  A
C375        N376   1.357       .  A
C375        C464   1.464       .  S
N376        C377   1.358       .  A
C377        N378   1.360       .  A
C377        C396   1.466       .  S
C379        N380   1.360       .  A
C379        N384   1.359       .  A
C379        C578   1.485       .  S
N380        C381   1.360       .  A
C381        N382   1.358       .  A
C381        C419   1.467       .  S
N382        C383   1.358       .  A
C383        N384   1.357       .  A
C383        C537   1.466       .  S
C385        N386   1.359       .  A
C385        N390   1.360       .  A
C385        C581   1.484       .  S
N386        C387   1.357       .  A
C387        N388   1.357       .  A
C387        C543   1.464       .  S
N388        C389   1.358       .  A
C389        N390   1.359       .  A
C389        C413   1.466       .  S
O391       Zr403   2.445       .  S
O391        C393   1.288       .  A
O392       Zr429   2.429       .  S
O392        C393   1.287       .  A
O394       Zr406   2.443       .  S
O394        C396   1.288       .  A
O395        C396   1.286       .  A
O397       Zr406   2.443       .  S
O397        C399   1.288       .  A
O398        C399   1.287       .  A
O400       Zr403   2.443       .  S
O400        C402   1.288       .  A
O401       Zr430   2.427       .  S
O401        C402   1.287       .  A
Zr403       O404   2.434       .  S
Zr403       O405   2.436       .  S
Zr403       O409   2.377       .  S
Zr403       O410   2.373       .  S
Zr403       O433   2.370       .  S
Zr403       O435   2.367       .  S
O404        H447   0.990       .  S
O405        H446   0.990       .  S
O405        H450   0.990       .  S
Zr406       O407   2.435       .  S
Zr406       O408   2.434       .  S
Zr406       O434   2.366       .  S
Zr406       O436   2.370       .  S
O407        H448   0.990       .  S
O407        H451   0.990       .  S
O408        H441   0.990       .  S
O409       Zr429   2.382       .  S
O410       Zr430   2.384       .  S
O410        H437   0.966       .  S
O411       Zr423   2.442       .  S
O411        C413   1.287       .  A
O412       Zr430   2.427       .  S
O412        C413   1.286       .  A
O414       Zr426   2.442       .  S
O414        C416   1.288       .  A
O415        C416   1.287       .  A
O417       Zr426   2.443       .  S
O417        C419   1.287       .  A
O418        C419   1.287       .  A
O420       Zr423   2.442       .  S
O420        C422   1.287       .  A
O421       Zr429   2.427       .  S
O421        C422   1.287       .  A
Zr423       O424   2.435       .  S
Zr423       O425   2.434       .  S
Zr423       O431   2.373       .  S
Zr423       O432   2.375       .  S
Zr423       O435   2.367       .  S
Zr423       O433   2.370       .  S
O424        H444   0.990       .  S
O424        H449   0.990       .  S
O425        H445   0.990       .  S
Zr426       O427   2.434       .  S
Zr426       O428   2.436       .  S
Zr426       O436   2.368       .  S
Zr426       O434   2.366       .  S
O427        H443   0.990       .  S
O428        H442   0.990       .  S
O428        H452   0.990       .  S
Zr429       O432   2.382       .  S
Zr429       O435   2.386       .  S
Zr430       O431   2.383       .  S
Zr430       O433   2.382       .  S
O431        H439   0.966       .  S
O434        H438   0.966       .  S
O435        H440   0.965       .  S
O453      Zr1737   2.443   1_455  S
O453        C455   1.287       .  A
O454        C455   1.287       .  A
O456       Zr468   2.443       .  S
O456        C458   1.288       .  A
O457       Zr492   2.423       .  S
O457        C458   1.285       .  A
O459      Zr1740   2.442   1_455  S
O459        C461   1.288       .  A
O460       Zr491   2.425       .  S
O460        C461   1.286       .  A
O462       Zr465   2.443       .  S
O462        C464   1.288       .  A
O463        C464   1.285       .  A
Zr465      O1725   2.443       .  S
Zr465       O466   2.434       .  S
Zr465       O467   2.437       .  S
Zr465      O1425   2.376   1_556  S
Zr465       O495   2.368       .  S
Zr465      O1769   2.368       .  S
O466       H1781   0.990       .  S
O467       H1780   0.990       .  S
O467        H512   0.990       .  S
Zr468      O1731   2.442       .  S
Zr468       O469   2.434       .  S
Zr468       O470   2.433       .  S
Zr468       O472   2.372       .  S
Zr468      O1743   2.374       .  S
Zr468      O1768   2.367       .  S
Zr468       O498   2.370       .  S
O469        H510   0.990       .  S
O469        H513   0.990       .  S
O470       H1775   0.990       .  S
O471      Zr1419   2.376   1_455  S
O471      Zr1740   2.374   1_455  S
O471       Zr491   2.383       .  S
O472       Zr492   2.384       .  S
O472        H499   0.966       .  S
O473       Zr485   2.439       .  S
O473        C475   1.287       .  A
O474        C475   1.286       .  A
O476      Zr1760   2.440   1_455  S
O476        C478   1.287       .  A
O477       Zr491   2.430       .  S
O477        C478   1.287       .  A
O479       Zr488   2.442       .  S
O479        C481   1.287       .  A
O480       Zr492   2.426       .  S
O480        C481   1.286       .  A
O482      Zr1757   2.438   1_455  S
O482        C484   1.287       .  A
O483        C484   1.287       .  A
Zr485      O1754   2.438       .  S
Zr485       O486   2.434       .  S
Zr485       O487   2.434       .  S
Zr485      O1448   2.375   1_556  S
Zr485      O1769   2.365       .  S
Zr485       O495   2.368       .  S
O486        H506   0.990       .  S
O486        H511   0.990       .  S
O487        H507   0.990       .  S
Zr488      O1748   2.440       .  S
Zr488       O489   2.435       .  S
Zr488       O490   2.435       .  S
Zr488      O1766   2.376       .  S
Zr488       O493   2.371       .  S
Zr488       O498   2.370       .  S
Zr488      O1768   2.365       .  S
O489       H1777   0.990       .  S
O490        H504   0.990       .  S
O490        H514   0.990       .  S
Zr491       O494   2.382       .  S
Zr491       O496   2.384       .  S
Zr492       O493   2.383       .  S
Zr492       O498   2.382       .  S
O493        H501   0.966       .  S
O494      Zr1439   2.375   1_455  S
O494      Zr1760   2.376   1_455  S
O496      Zr1740   2.367   1_455  S
O496      Zr1760   2.365   1_455  S
O496        H500   0.965       .  S
O497      Zr1737   2.368   1_455  S
O497      Zr1757   2.365   1_455  S
O497        H502   0.965       .  S
H503       O1742   0.990       .  S
H505       O1761   0.990   1_455  S
H508       O1739   0.990   1_455  S
H509       O1738   0.990   1_455  S
O515       Zr527   2.444       .  S
O515        C517   1.288       .  A
O516        C517   1.286       .  A
O518      Zr1166   2.442   1_545  S
O518        C520   1.288       .  A
O519       Zr554   2.422       .  S
O519        C520   1.285       .  A
O521       Zr530   2.443       .  S
O521        C523   1.288       .  A
O522       Zr553   2.427       .  S
O522        C523   1.286       .  A
O524      Zr1163   2.440   1_545  S
O524        C526   1.287       .  A
O525        C526   1.285       .  A
Zr527      O1160   2.440       .  S
Zr527       O528   2.434       .  S
Zr527      O1165   2.436       .  S
Zr527       O852   2.374   1_556  S
Zr527      O1193   2.368       .  S
Zr527       O559   2.368       .  S
O528        H571   0.990       .  S
O529      Zr1163   2.436       .  S
O529       H1206   0.990       .  S
O529       H1210   0.990       .  S
Zr530      O1154   2.442       .  S
Zr530       O531   2.436       .  S
Zr530      O1168   2.433       .  S
Zr530      O1170   2.374       .  S
Zr530       O533   2.373       .  S
Zr530       O558   2.368       .  S
Zr530      O1196   2.371       .  S
O531       H1208   0.990       .  S
O531        H575   0.990       .  S
O532      Zr1166   2.433       .  S
O532       H1201   0.990       .  S
O533       Zr553   2.381       .  S
O534       Zr845   2.374   1_545  S
O534      Zr1166   2.374   1_545  S
O534       Zr554   2.386       .  S
O534        H561   0.966       .  S
O535      Zr1183   2.443   1_545  S
O535        C537   1.288       .  A
O536        C537   1.286       .  A
O538       Zr550   2.442       .  S
O538        C540   1.288       .  A
O539       Zr553   2.426       .  S
O539        C540   1.286       .  A
O541      Zr1186   2.440   1_545  S
O541        C543   1.287       .  A
O542       Zr554   2.423       .  S
O542        C543   1.285       .  A
O544       Zr547   2.441       .  S
O544        C546   1.287       .  A
O545        C546   1.287       .  A
Zr547      O1171   2.443       .  S
Zr547       O548   2.436       .  S
Zr547       O549   2.434       .  S
Zr547       O873   2.374   1_556  S
Zr547       O559   2.369       .  S
Zr547      O1193   2.368       .  S
O548       H1204   0.990       .  S
O548        H573   0.990       .  S
O549       H1205   0.990       .  S
Zr550      O1177   2.440       .  S
Zr550       O551   2.434       .  S
Zr550       O552   2.437       .  S
Zr550       O556   2.375       .  S
Zr550      O1191   2.373       .  S
Zr550      O1196   2.370       .  S
Zr550       O558   2.367       .  S
O551        H567   0.990       .  S
O552       H1202   0.990       .  S
O552        H576   0.990       .  S
Zr553       O556   2.382       .  S
Zr553       O558   2.386       .  S
Zr554       O555   2.385       .  S
Zr554       O560   2.383       .  S
O555       Zr865   2.374   1_545  S
O555      Zr1186   2.373   1_545  S
O555        H563   0.966       .  S
O557      Zr1163   2.368   1_545  S
O557      Zr1183   2.368   1_545  S
O558        H562   0.966       .  S
O559        H564   0.966       .  S
O560      Zr1166   2.371   1_545  S
O560      Zr1186   2.370   1_545  S
H565       O1168   0.990       .  S
H566       O1188   0.990   1_545  S
H568       O1184   0.990   1_545  S
H569       O1185   0.990   1_545  S
H570       O1165   0.990       .  S
H572       O1167   0.990   1_545  S
H574       O1165   0.990       .  S
C577        C578   1.406       .  A
C577        C582   1.396       .  A
C577        H583   1.083       .  S
C578        C579   1.406       .  A
C579        C580   1.400       .  A
C579        H584   1.083       .  S
C580        C581   1.407       .  A
C580        H585   1.083       .  S
C581        C582   1.406       .  A
C582        H586   1.083       .  S
C587        C588   1.405       .  A
C587        C592   1.395       .  A
C587        H593   1.083       .  S
C588        C589   1.407       .  A
C589        C590   1.400       .  A
C589        H594   1.083       .  S
C590        C591   1.406       .  A
C590        H595   1.083       .  S
C591        C592   1.406       .  A
C592        H596   1.083       .  S
C597        C598   1.406       .  A
C597        C602   1.397       .  A
C597        H603   1.083       .  S
C598        C599   1.406       .  A
C599        C600   1.399       .  A
C599        H604   1.083       .  S
C600        C601   1.407       .  A
C600        H605   1.083       .  S
C601        C602   1.406       .  A
C602        H606   1.083       .  S
C607        C608   1.407       .  A
C607        C612   1.399       .  A
C607        H613   1.083       .  S
C608        C609   1.407       .  A
C609        C610   1.401       .  A
C609        H614   1.083       .  S
C610        C611   1.407       .  A
C610        H615   1.083       .  S
C611        C612   1.407       .  A
C612        H616   1.083       .  S
C617        C618   1.407       .  A
C617        C622   1.399       .  A
C617        H623   1.083       .  S
C618        C619   1.407       .  A
C619        C620   1.400       .  A
C619        H624   1.083       .  S
C620        C621   1.407       .  A
C620        H625   1.083       .  S
C621        C622   1.407       .  A
C622        H626   1.083       .  S
C627        C628   1.407       .  A
C627        C632   1.401       .  A
C627        H633   1.083       .  S
C628        C629   1.406       .  A
C629        C630   1.398       .  A
C629        H634   1.083       .  S
C630        C631   1.407       .  A
C630        H635   1.083       .  S
C631        C632   1.407       .  A
C632        H636   1.083       .  S
C637        N638   1.360       .  A
C637        N642   1.361       .  A
C637        C946   1.487       .  S
N638        C639   1.358       .  A
C639        N640   1.357       .  A
C639        C841   1.466       .  S
N640        C641   1.358       .  A
C641        N642   1.360       .  A
C641        C711   1.467       .  S
C643        N644   1.359       .  A
C643        N648   1.361       .  A
C643        C949   1.487       .  S
N644        C645   1.358       .  A
C645        N646   1.358       .  A
C645        C835   1.466       .  S
N646        C647   1.358       .  A
C647        N648   1.360       .  A
C647        C717   1.467       .  S
C649        N650   1.361       .  A
C649        N654   1.360       .  A
C649        C936   1.489       .  S
N650        C651   1.360       .  A
C651        N652   1.357       .  A
C651        C773   1.466       .  S
N652        C653   1.357       .  A
C653        N654   1.359       .  A
C653        C864   1.465       .  S
C655        N656   1.360       .  A
C655        N660   1.361       .  A
C655        C939   1.488       .  S
N656        C657   1.359       .  A
C657        N658   1.357       .  A
C657        C858   1.465       .  S
N658        C659   1.357       .  A
C659        N660   1.360       .  A
C659        C779   1.465       .  S
C661        N662   1.360       .  A
C661        N666   1.361       .  A
C661        C926   1.488       .  S
N662        C663   1.359       .  A
C663        N664   1.357       .  A
C663        C796   1.465       .  S
N664        C665   1.357       .  A
C665        N666   1.360       .  A
C665        C740   1.465       .  S
C667        N668   1.360       .  A
C667        N672   1.361       .  A
C667        C929   1.488       .  S
N668        C669   1.358       .  A
C669        N670   1.357       .  A
C669        C802   1.464       .  S
N670        C671   1.358       .  A
C671        N672   1.360       .  A
C671        C734   1.466       .  S
C673        N674   1.359       .  A
C673        N678   1.360       .  A
C673        C916   1.484       .  S
N674        C675   1.357       .  A
C675        N676   1.357       .  A
C675        C844   1.464       .  S
N676        C677   1.358       .  A
C677        N678   1.359       .  A
C677        C793   1.464       .  S
C679        N680   1.360       .  A
C679        N684   1.359       .  A
C679        C919   1.485       .  S
N680        C681   1.359       .  A
C681        N682   1.358       .  A
C681        C799   1.466       .  S
N682        C683   1.358       .  A
C683        N684   1.357       .  A
C683        C838   1.465       .  S
C685        N686   1.360       .  A
C685        N690   1.359       .  A
C685        C906   1.483       .  S
N686        C687   1.359       .  A
C687        N688   1.359       .  A
C687        C720   1.467       .  S
N688        C689   1.358       .  A
C689        N690   1.356       .  A
C689        C776   1.465       .  S
C691        N692   1.358       .  A
C691        N696   1.360       .  A
C691        C909   1.483       .  S
N692        C693   1.356       .  A
C693        N694   1.357       .  A
C693        C782   1.464       .  S
N694        C695   1.358       .  A
C695        N696   1.360       .  A
C695        C714   1.466       .  S
C697        N698   1.360       .  A
C697        N702   1.359       .  A
C697        C896   1.485       .  S
N698        C699   1.360       .  A
C699        N700   1.358       .  A
C699        C737   1.467       .  S
N700        C701   1.358       .  A
C701        N702   1.357       .  A
C701        C855   1.466       .  S
C703        N704   1.359       .  A
C703        N708   1.360       .  A
C703        C899   1.484       .  S
N704        C705   1.357       .  A
C705        N706   1.357       .  A
C705        C861   1.464       .  S
N706        C707   1.358       .  A
C707        N708   1.359       .  A
C707        C731   1.466       .  S
O709       Zr721   2.445       .  S
O709        C711   1.288       .  A
O710       Zr747   2.429       .  S
O710        C711   1.287       .  A
O712       Zr724   2.443       .  S
O712        C714   1.288       .  A
O713      Zr1066   2.424       .  S
O713        C714   1.286       .  A
O715       Zr724   2.443       .  S
O715        C717   1.288       .  A
O716      Zr1065   2.431       .  S
O716        C717   1.287       .  A
O718       Zr721   2.443       .  S
O718        C720   1.288       .  A
O719       Zr748   2.427       .  S
O719        C720   1.287       .  A
Zr721       O722   2.434       .  S
Zr721       O723   2.436       .  S
Zr721       O727   2.377       .  S
Zr721       O728   2.373       .  S
Zr721       O751   2.370       .  S
Zr721       O753   2.367       .  S
O722        H765   0.990       .  S
O723        H764   0.990       .  S
O723        H768   0.990       .  S
Zr724       O725   2.435       .  S
Zr724       O726   2.434       .  S
Zr724      O1046   2.374       .  S
Zr724      O1045   2.375       .  S
Zr724       O752   2.367       .  S
Zr724       O754   2.370       .  S
O725        H766   0.990       .  S
O725        H769   0.990       .  S
O726        H759   0.990       .  S
O727      Zr1042   2.375   1_554  S
O727       Zr747   2.382       .  S
O728      Zr1042   2.374   1_554  S
O728       Zr748   2.384       .  S
O728        H755   0.966       .  S
O729       Zr741   2.442       .  S
O729        C731   1.287       .  A
O730       Zr748   2.427       .  S
O730        C731   1.286       .  A
O732       Zr744   2.442       .  S
O732        C734   1.288       .  A
O733      Zr1065   2.429       .  S
O733        C734   1.287       .  A
O735       Zr744   2.443       .  S
O735        C737   1.287       .  A
O736      Zr1066   2.428       .  S
O736        C737   1.287       .  A
O738       Zr741   2.442       .  S
O738        C740   1.287       .  A
O739       Zr747   2.427       .  S
O739        C740   1.287       .  A
Zr741       O742   2.435       .  S
Zr741       O743   2.434       .  S
Zr741       O749   2.373       .  S
Zr741       O750   2.375       .  S
Zr741       O753   2.367       .  S
Zr741       O751   2.370       .  S
O742        H762   0.990       .  S
O742        H767   0.990       .  S
O743        H763   0.990       .  S
Zr744       O745   2.434       .  S
Zr744       O746   2.436       .  S
Zr744      O1068   2.376       .  S
Zr744      O1067   2.374       .  S
Zr744       O754   2.368       .  S
Zr744       O752   2.366       .  S
O745        H761   0.990       .  S
O746        H760   0.990       .  S
O746        H770   0.990       .  S
Zr747      O1034   2.431   1_554  S
Zr747      O1051   2.429   1_554  S
Zr747       O750   2.382       .  S
Zr747      O1070   2.384   1_554  S
Zr747       O753   2.386       .  S
Zr748      O1031   2.424   1_554  S
Zr748      O1054   2.428   1_554  S
Zr748       O749   2.383       .  S
Zr748       O751   2.382       .  S
Zr748      O1072   2.382   1_554  S
O749      Zr1062   2.374   1_554  S
O749        H757   0.966       .  S
O750      Zr1062   2.376   1_554  S
O752      Zr1065   2.384       .  S
O752        H756   0.966       .  S
O753        H758   0.965       .  S
O754      Zr1066   2.382       .  S
O771      Zr2055   2.443   1_455  S
O771        C773   1.287       .  A
O772      Zr1127   2.429       .  S
O772        C773   1.287       .  A
O774       Zr786   2.443       .  S
O774        C776   1.288       .  A
O775       Zr810   2.423       .  S
O775        C776   1.285       .  A
O777      Zr2058   2.442   1_455  S
O777        C779   1.288       .  A
O778       Zr809   2.425       .  S
O778        C779   1.286       .  A
O780       Zr783   2.443       .  S
O780        C782   1.288       .  A
O781      Zr1128   2.422       .  S
O781        C782   1.285       .  A
Zr783      O2043   2.443       .  S
Zr783       O784   2.434       .  S
Zr783       O785   2.437       .  S
Zr783      O2379   2.376       .  S
Zr783      O1108   2.373       .  S
Zr783       O813   2.368       .  S
Zr783      O2087   2.368       .  S
O784       H2099   0.990       .  S
O785       H2098   0.990       .  S
O785        H830   0.990       .  S
Zr786      O2049   2.442       .  S
Zr786       O787   2.434       .  S
Zr786       O788   2.433       .  S
Zr786       O790   2.372       .  S
Zr786      O2061   2.374       .  S
Zr786      O2086   2.367       .  S
Zr786       O816   2.370       .  S
O787        H828   0.990       .  S
O787        H831   0.990       .  S
O788       H2093   0.990       .  S
O789      Zr2373   2.376   1_454  S
O789      Zr2058   2.374   1_455  S
O789       Zr809   2.383       .  S
O790      Zr1101   2.373   1_554  S
O790       Zr810   2.384       .  S
O790        H817   0.966       .  S
O791       Zr803   2.439       .  S
O791        C793   1.287       .  A
O792      Zr1128   2.423       .  S
O792        C793   1.286       .  A
O794      Zr2078   2.440   1_455  S
O794        C796   1.287       .  A
O795       Zr809   2.430       .  S
O795        C796   1.287       .  A
O797       Zr806   2.442       .  S
O797        C799   1.287       .  A
O798       Zr810   2.426       .  S
O798        C799   1.286       .  A
O800      Zr2075   2.438   1_455  S
O800        C802   1.287       .  A
O801      Zr1127   2.428       .  S
O801        C802   1.287       .  A
Zr803      O2072   2.438       .  S
Zr803       O804   2.434       .  S
Zr803       O805   2.434       .  S
Zr803      O1129   2.373       .  S
Zr803      O2402   2.375       .  S
Zr803      O2087   2.365       .  S
Zr803       O813   2.368       .  S
O804        H824   0.990       .  S
O804        H829   0.990       .  S
O805        H825   0.990       .  S
Zr806      O2066   2.440       .  S
Zr806       O807   2.435       .  S
Zr806       O808   2.435       .  S
Zr806      O2084   2.376       .  S
Zr806       O811   2.371       .  S
Zr806       O816   2.370       .  S
Zr806      O2086   2.365       .  S
O807       H2095   0.990       .  S
O808        H822   0.990       .  S
O808        H832   0.990       .  S
Zr809      O1090   2.429   1_554  S
Zr809      O1119   2.428   1_554  S
Zr809       O812   2.382       .  S
Zr809       O814   2.384       .  S
Zr809      O1133   2.384   1_554  S
Zr810      O1099   2.422   1_554  S
Zr810      O1110   2.423   1_554  S
Zr810       O811   2.383       .  S
Zr810      O1131   2.382   1_554  S
Zr810       O816   2.382       .  S
O811      Zr1121   2.373   1_554  S
O811        H819   0.966       .  S
O812      Zr2393   2.375   1_454  S
O812      Zr2078   2.376   1_455  S
O813      Zr1128   2.382       .  S
O814      Zr2058   2.367   1_455  S
O814      Zr2078   2.365   1_455  S
O814        H818   0.965       .  S
O815      Zr2055   2.368   1_455  S
O815      Zr2075   2.365   1_455  S
O815      Zr1127   2.384       .  S
O815        H820   0.965       .  S
H821       O2060   0.990       .  S
H823       O2079   0.990   1_455  S
H826       O2057   0.990   1_455  S
H827       O2056   0.990   1_455  S
O833       Zr845   2.444       .  S
O833        C835   1.288       .  A
O834      Zr1189   2.425       .  S
O834        C835   1.286       .  A
O836        C838   1.288       .  A
O837       Zr872   2.422       .  S
O837        C838   1.285       .  A
O839       Zr848   2.443       .  S
O839        C841   1.288       .  A
O840       Zr871   2.427       .  S
O840        C841   1.286       .  A
O842        C844   1.287       .  A
O843      Zr1190   2.422       .  S
O843        C844   1.285       .  A
Zr845       O846   2.434       .  S
Zr845      O1169   2.375       .  S
Zr845       O877   2.368       .  S
O846        H889   0.990       .  S
Zr848       O849   2.436       .  S
Zr848       O851   2.373       .  S
Zr848       O876   2.368       .  S
O849        H893   0.990       .  S
O851      Zr1163   2.375   1_554  S
O851       Zr871   2.381       .  S
O852       Zr872   2.386       .  S
O852        H879   0.966       .  S
O853        C855   1.288       .  A
O854      Zr1190   2.424       .  S
O854        C855   1.286       .  A
O856       Zr868   2.442       .  S
O856        C858   1.288       .  A
O857       Zr871   2.426       .  S
O857        C858   1.286       .  A
O859        C861   1.287       .  A
O860       Zr872   2.423       .  S
O860        C861   1.285       .  A
O862       Zr865   2.441       .  S
O862        C864   1.287       .  A
O863      Zr1189   2.428       .  S
O863        C864   1.287       .  A
Zr865       O866   2.436       .  S
Zr865       O867   2.434       .  S
Zr865      O1192   2.376       .  S
Zr865       O877   2.369       .  S
O866        H891   0.990       .  S
Zr868       O869   2.434       .  S
Zr868       O870   2.437       .  S
Zr868       O874   2.375       .  S
Zr868       O876   2.367       .  S
O869        H885   0.990       .  S
O870        H894   0.990   1_565  S
Zr871      O1152   2.425   1_554  S
Zr871      O1181   2.428   1_554  S
Zr871       O874   2.382       .  S
Zr871       O876   2.386       .  S
Zr871      O1195   2.388   1_554  S
Zr872      O1161   2.422   1_554  S
Zr872      O1172   2.424   1_554  S
Zr872       O873   2.385       .  S
Zr872      O1193   2.380   1_554  S
Zr872       O878   2.383       .  S
O873        H881   0.966       .  S
O874      Zr1183   2.376   1_554  S
O875      Zr1190   2.380       .  S
O876        H880   0.966       .  S
O877      Zr1189   2.388       .  S
O877        H882   0.966       .  S
C895        C896   1.406       .  A
C895        C900   1.396       .  A
C895        H901   1.083       .  S
C896        C897   1.406       .  A
C897        C898   1.400       .  A
C897        H902   1.083       .  S
C898        C899   1.407       .  A
C898        H903   1.083       .  S
C899        C900   1.406       .  A
C900        H904   1.083       .  S
C905        C906   1.405       .  A
C905        C910   1.395       .  A
C905        H911   1.083       .  S
C906        C907   1.407       .  A
C907        C908   1.400       .  A
C907        H912   1.083       .  S
C908        C909   1.406       .  A
C908        H913   1.083       .  S
C909        C910   1.406       .  A
C910        H914   1.083       .  S
C915        C916   1.406       .  A
C915        C920   1.397       .  A
C915        H921   1.083       .  S
C916        C917   1.406       .  A
C917        C918   1.399       .  A
C917        H922   1.083       .  S
C918        C919   1.407       .  A
C918        H923   1.083       .  S
C919        C920   1.406       .  A
C920        H924   1.083       .  S
C925        C926   1.407       .  A
C925        C930   1.399       .  A
C925        H931   1.083       .  S
C926        C927   1.407       .  A
C927        C928   1.401       .  A
C927        H932   1.083       .  S
C928        C929   1.407       .  A
C928        H933   1.083       .  S
C929        C930   1.407       .  A
C930        H934   1.083       .  S
C935        C936   1.407       .  A
C935        C940   1.399       .  A
C935        H941   1.083       .  S
C936        C937   1.407       .  A
C937        C938   1.400       .  A
C937        H942   1.083       .  S
C938        C939   1.407       .  A
C938        H943   1.083       .  S
C939        C940   1.407       .  A
C940        H944   1.083       .  S
C945        C946   1.407       .  A
C945        C950   1.401       .  A
C945        H951   1.083       .  S
C946        C947   1.406       .  A
C947        C948   1.398       .  A
C947        H952   1.083       .  S
C948        C949   1.407       .  A
C948        H953   1.083       .  S
C949        C950   1.407       .  A
C950        H954   1.083       .  S
C955        N956   1.360       .  A
C955        N960   1.361       .  A
C955       C1264   1.487       .  S
N956        C957   1.358       .  A
C957        N958   1.357       .  A
C957       C1159   1.466       .  S
N958        C959   1.358       .  A
C959        N960   1.360       .  A
C959       C1029   1.467       .  S
C961        N962   1.359       .  A
C961        N966   1.361       .  A
C961       C1267   1.487       .  S
N962        C963   1.358       .  A
C963        N964   1.358       .  A
C963       C1153   1.466       .  S
N964        C965   1.358       .  A
C965        N966   1.360       .  A
C965       C1035   1.467       .  S
C967        N968   1.361       .  A
C967        N972   1.360       .  A
C967       C1254   1.489       .  S
N968        C969   1.360       .  A
C969        N970   1.357       .  A
C969       C1091   1.466       .  S
N970        C971   1.357       .  A
C971        N972   1.359       .  A
C971       C1182   1.465       .  S
C973        N974   1.360       .  A
C973        N978   1.361       .  A
C973       C1257   1.488       .  S
N974        C975   1.359       .  A
C975        N976   1.357       .  A
C975       C1176   1.465       .  S
N976        C977   1.357       .  A
C977        N978   1.360       .  A
C977       C1097   1.465       .  S
C979        N980   1.360       .  A
C979        N984   1.361       .  A
C979       C1244   1.488       .  S
N980        C981   1.359       .  A
C981        N982   1.357       .  A
C981       C1114   1.465       .  S
N982        C983   1.357       .  A
C983        N984   1.360       .  A
C983       C1058   1.465       .  S
C985        N986   1.360       .  A
C985        N990   1.361       .  A
C985       C1247   1.488       .  S
N986        C987   1.358       .  A
C987        N988   1.357       .  A
C987       C1120   1.464       .  S
N988        C989   1.358       .  A
C989        N990   1.360       .  A
C989       C1052   1.466       .  S
C991        N992   1.359       .  A
C991        N996   1.360       .  A
C991       C1234   1.484       .  S
N992        C993   1.357       .  A
C993        N994   1.357       .  A
C993       C1162   1.464       .  S
N994        C995   1.358       .  A
C995        N996   1.359       .  A
C995       C1111   1.464       .  S
C997        N998   1.360       .  A
C997       N1002   1.359       .  A
C997       C1237   1.485       .  S
N998        C999   1.359       .  A
C999       N1000   1.358       .  A
C999       C1117   1.466       .  S
N1000      C1001   1.358       .  A
C1001      N1002   1.357       .  A
C1001      C1156   1.465       .  S
C1003      N1004   1.360       .  A
C1003      N1008   1.359       .  A
C1003      C1224   1.483       .  S
N1004      C1005   1.359       .  A
C1005      N1006   1.359       .  A
C1005      C1038   1.467       .  S
N1006      C1007   1.358       .  A
C1007      N1008   1.356       .  A
C1007      C1094   1.465       .  S
C1009      N1010   1.358       .  A
C1009      N1014   1.360       .  A
C1009      C1227   1.483       .  S
N1010      C1011   1.356       .  A
C1011      N1012   1.357       .  A
C1011      C1100   1.464       .  S
N1012      C1013   1.358       .  A
C1013      N1014   1.360       .  A
C1013      C1032   1.466       .  S
C1015      N1016   1.360       .  A
C1015      N1020   1.359       .  A
C1015      C1214   1.485       .  S
N1016      C1017   1.360       .  A
C1017      N1018   1.358       .  A
C1017      C1055   1.467       .  S
N1018      C1019   1.358       .  A
C1019      N1020   1.357       .  A
C1019      C1173   1.466       .  S
C1021      N1022   1.359       .  A
C1021      N1026   1.360       .  A
C1021      C1217   1.484       .  S
N1022      C1023   1.357       .  A
C1023      N1024   1.357       .  A
C1023      C1179   1.464       .  S
N1024      C1025   1.358       .  A
C1025      N1026   1.359       .  A
C1025      C1049   1.466       .  S
O1027     Zr1039   2.445       .  S
O1027      C1029   1.288       .  A
O1028     Zr1065   2.429       .  S
O1028      C1029   1.287       .  A
O1030     Zr1042   2.443       .  S
O1030      C1032   1.288       .  A
O1031      C1032   1.286       .  A
O1033     Zr1042   2.443       .  S
O1033      C1035   1.288       .  A
O1034      C1035   1.287       .  A
O1036     Zr1039   2.443       .  S
O1036      C1038   1.288       .  A
O1037     Zr1066   2.427       .  S
O1037      C1038   1.287       .  A
Zr1039     O1040   2.434       .  S
Zr1039     O1041   2.436       .  S
Zr1039     O1045   2.377       .  S
Zr1039     O1046   2.373       .  S
Zr1039     O1069   2.370       .  S
Zr1039     O1071   2.367       .  S
O1040      H1083   0.990       .  S
O1041      H1082   0.990       .  S
O1041      H1086   0.990       .  S
Zr1042     O1043   2.435       .  S
Zr1042     O1044   2.434       .  S
Zr1042     O1070   2.367       .  S
Zr1042     O1072   2.370       .  S
O1043      H1084   0.990       .  S
O1043      H1087   0.990       .  S
O1044      H1077   0.990       .  S
O1045     Zr1065   2.382       .  S
O1046     Zr1066   2.384       .  S
O1046      H1073   0.966       .  S
O1047     Zr1059   2.442       .  S
O1047      C1049   1.287       .  A
O1048     Zr1066   2.427       .  S
O1048      C1049   1.286       .  A
O1050     Zr1062   2.442       .  S
O1050      C1052   1.288       .  A
O1051      C1052   1.287       .  A
O1053     Zr1062   2.443       .  S
O1053      C1055   1.287       .  A
O1054      C1055   1.287       .  A
O1056     Zr1059   2.442       .  S
O1056      C1058   1.287       .  A
O1057     Zr1065   2.427       .  S
O1057      C1058   1.287       .  A
Zr1059     O1060   2.435       .  S
Zr1059     O1061   2.434       .  S
Zr1059     O1067   2.373       .  S
Zr1059     O1068   2.375       .  S
Zr1059     O1071   2.367       .  S
Zr1059     O1069   2.370       .  S
O1060      H1080   0.990       .  S
O1060      H1085   0.990       .  S
O1061      H1081   0.990       .  S
Zr1062     O1063   2.434       .  S
Zr1062     O1064   2.436       .  S
Zr1062     O1072   2.368       .  S
Zr1062     O1070   2.366       .  S
O1063      H1079   0.990       .  S
O1064      H1078   0.990       .  S
O1064      H1088   0.990       .  S
Zr1065     O1068   2.382       .  S
Zr1065     O1071   2.386       .  S
Zr1066     O1067   2.383       .  S
Zr1066     O1069   2.382       .  S
O1067      H1075   0.966       .  S
O1070      H1074   0.966       .  S
O1071      H1076   0.965       .  S
O1089     Zr2373   2.443   1_455  S
O1089      C1091   1.287       .  A
O1090      C1091   1.287       .  A
O1092     Zr1104   2.443       .  S
O1092      C1094   1.288       .  A
O1093     Zr1128   2.423       .  S
O1093      C1094   1.285       .  A
O1095     Zr2376   2.442   1_455  S
O1095      C1097   1.288       .  A
O1096     Zr1127   2.425       .  S
O1096      C1097   1.286       .  A
O1098     Zr1101   2.443       .  S
O1098      C1100   1.288       .  A
O1099      C1100   1.285       .  A
Zr1101     O2361   2.443       .  S
Zr1101     O1102   2.434       .  S
Zr1101     O1103   2.437       .  S
Zr1101     O2061   2.376   1_556  S
Zr1101     O1131   2.368       .  S
Zr1101     O2405   2.368       .  S
O1102      H2417   0.990       .  S
O1103      H2416   0.990       .  S
O1103      H1148   0.990       .  S
Zr1104     O2367   2.442       .  S
Zr1104     O1105   2.434       .  S
Zr1104     O1106   2.433       .  S
Zr1104     O1108   2.372       .  S
Zr1104     O2379   2.374       .  S
Zr1104     O2404   2.367       .  S
Zr1104     O1134   2.370       .  S
O1105      H1146   0.990       .  S
O1105      H1149   0.990       .  S
O1106      H2411   0.990       .  S
O1107     Zr2055   2.376   1_455  S
O1107     Zr2376   2.374   1_455  S
O1107     Zr1127   2.383       .  S
O1108     Zr1128   2.384       .  S
O1108      H1135   0.966       .  S
O1109     Zr1121   2.439       .  S
O1109      C1111   1.287       .  A
O1110      C1111   1.286       .  A
O1112     Zr2396   2.440   1_455  S
O1112      C1114   1.287       .  A
O1113     Zr1127   2.430       .  S
O1113      C1114   1.287       .  A
O1115     Zr1124   2.442       .  S
O1115      C1117   1.287       .  A
O1116     Zr1128   2.426       .  S
O1116      C1117   1.286       .  A
O1118     Zr2393   2.438   1_455  S
O1118      C1120   1.287       .  A
O1119      C1120   1.287       .  A
Zr1121     O2390   2.438       .  S
Zr1121     O1122   2.434       .  S
Zr1121     O1123   2.434       .  S
Zr1121     O2084   2.375   1_556  S
Zr1121     O2405   2.365       .  S
Zr1121     O1131   2.368       .  S
O1122      H1142   0.990       .  S
O1122      H1147   0.990       .  S
O1123      H1143   0.990       .  S
Zr1124     O2384   2.440       .  S
Zr1124     O1125   2.435       .  S
Zr1124     O1126   2.435       .  S
Zr1124     O2402   2.376       .  S
Zr1124     O1129   2.371       .  S
Zr1124     O1134   2.370       .  S
Zr1124     O2404   2.365       .  S
O1125      H2413   0.990       .  S
O1126      H1140   0.990       .  S
O1126      H1150   0.990       .  S
Zr1127     O1130   2.382       .  S
Zr1127     O1132   2.384       .  S
Zr1128     O1129   2.383       .  S
Zr1128     O1134   2.382       .  S
O1129      H1137   0.966       .  S
O1130     Zr2075   2.375   1_455  S
O1130     Zr2396   2.376   1_455  S
O1132     Zr2376   2.367   1_455  S
O1132     Zr2396   2.365   1_455  S
O1132      H1136   0.965       .  S
O1133     Zr2373   2.368   1_455  S
O1133     Zr2393   2.365   1_455  S
O1133      H1138   0.965       .  S
H1139      O2378   0.990       .  S
H1141      O2397   0.990   1_455  S
H1144      O2375   0.990   1_455  S
H1145      O2374   0.990   1_455  S
O1151     Zr1163   2.444       .  S
O1151      C1153   1.288       .  A
O1152      C1153   1.286       .  A
O1154      C1156   1.288       .  A
O1155     Zr1190   2.422       .  S
O1155      C1156   1.285       .  A
O1157     Zr1166   2.443       .  S
O1157      C1159   1.288       .  A
O1158     Zr1189   2.427       .  S
O1158      C1159   1.286       .  A
O1160      C1162   1.287       .  A
O1161      C1162   1.285       .  A
Zr1163     O1164   2.434       .  S
Zr1163     O1195   2.368       .  S
O1164      H1207   0.990       .  S
Zr1166     O1167   2.436       .  S
Zr1166     O1169   2.373       .  S
Zr1166     O1194   2.368       .  S
O1167      H1211   0.990       .  S
O1169     Zr1189   2.381       .  S
O1170     Zr1190   2.386       .  S
O1170      H1197   0.966       .  S
O1171      C1173   1.288       .  A
O1172      C1173   1.286       .  A
O1174     Zr1186   2.442       .  S
O1174      C1176   1.288       .  A
O1175     Zr1189   2.426       .  S
O1175      C1176   1.286       .  A
O1177      C1179   1.287       .  A
O1178     Zr1190   2.423       .  S
O1178      C1179   1.285       .  A
O1180     Zr1183   2.441       .  S
O1180      C1182   1.287       .  A
O1181      C1182   1.287       .  A
Zr1183     O1184   2.436       .  S
Zr1183     O1185   2.434       .  S
Zr1183     O1195   2.369       .  S
O1184      H1209   0.990       .  S
Zr1186     O1187   2.434       .  S
Zr1186     O1188   2.437       .  S
Zr1186     O1192   2.375       .  S
Zr1186     O1194   2.367       .  S
O1187      H1203   0.990       .  S
O1188      H1212   0.990   1_565  S
Zr1189     O1192   2.382       .  S
Zr1189     O1194   2.386       .  S
Zr1190     O1191   2.385       .  S
Zr1190     O1196   2.383       .  S
O1191      H1199   0.966       .  S
O1194      H1198   0.966       .  S
O1195      H1200   0.966       .  S
C1213      C1214   1.406       .  A
C1213      C1218   1.396       .  A
C1213      H1219   1.083       .  S
C1214      C1215   1.406       .  A
C1215      C1216   1.400       .  A
C1215      H1220   1.083       .  S
C1216      C1217   1.407       .  A
C1216      H1221   1.083       .  S
C1217      C1218   1.406       .  A
C1218      H1222   1.083       .  S
C1223      C1224   1.405       .  A
C1223      C1228   1.395       .  A
C1223      H1229   1.083       .  S
C1224      C1225   1.407       .  A
C1225      C1226   1.400       .  A
C1225      H1230   1.083       .  S
C1226      C1227   1.406       .  A
C1226      H1231   1.083       .  S
C1227      C1228   1.406       .  A
C1228      H1232   1.083       .  S
C1233      C1234   1.406       .  A
C1233      C1238   1.397       .  A
C1233      H1239   1.083       .  S
C1234      C1235   1.406       .  A
C1235      C1236   1.399       .  A
C1235      H1240   1.083       .  S
C1236      C1237   1.407       .  A
C1236      H1241   1.083       .  S
C1237      C1238   1.406       .  A
C1238      H1242   1.083       .  S
C1243      C1244   1.407       .  A
C1243      C1248   1.399       .  A
C1243      H1249   1.083       .  S
C1244      C1245   1.407       .  A
C1245      C1246   1.401       .  A
C1245      H1250   1.083       .  S
C1246      C1247   1.407       .  A
C1246      H1251   1.083       .  S
C1247      C1248   1.407       .  A
C1248      H1252   1.083       .  S
C1253      C1254   1.407       .  A
C1253      C1258   1.399       .  A
C1253      H1259   1.083       .  S
C1254      C1255   1.407       .  A
C1255      C1256   1.400       .  A
C1255      H1260   1.083       .  S
C1256      C1257   1.407       .  A
C1256      H1261   1.083       .  S
C1257      C1258   1.407       .  A
C1258      H1262   1.083       .  S
C1263      C1264   1.407       .  A
C1263      C1268   1.401       .  A
C1263      H1269   1.083       .  S
C1264      C1265   1.406       .  A
C1265      C1266   1.398       .  A
C1265      H1270   1.083       .  S
C1266      C1267   1.407       .  A
C1266      H1271   1.083       .  S
C1267      C1268   1.407       .  A
C1268      H1272   1.083       .  S
C1273      N1274   1.360       .  A
C1273      N1278   1.361       .  A
C1273      C1582   1.487       .  S
N1274      C1275   1.358       .  A
C1275      N1276   1.357       .  A
C1275      C1477   1.466       .  S
N1276      C1277   1.358       .  A
C1277      N1278   1.360       .  A
C1277      C1347   1.467       .  S
C1279      N1280   1.359       .  A
C1279      N1284   1.361       .  A
C1279      C1585   1.487       .  S
N1280      C1281   1.358       .  A
C1281      N1282   1.358       .  A
C1281      C1471   1.466       .  S
N1282      C1283   1.358       .  A
C1283      N1284   1.360       .  A
C1283      C1353   1.467       .  S
C1285      N1286   1.361       .  A
C1285      N1290   1.360       .  A
C1285      C1572   1.489       .  S
N1286      C1287   1.360       .  A
C1287      N1288   1.357       .  A
C1287      C1409   1.466       .  S
N1288      C1289   1.357       .  A
C1289      N1290   1.359       .  A
C1289      C1500   1.465       .  S
C1291      N1292   1.360       .  A
C1291      N1296   1.361       .  A
C1291      C1575   1.488       .  S
N1292      C1293   1.359       .  A
C1293      N1294   1.357       .  A
C1293      C1494   1.465       .  S
N1294      C1295   1.357       .  A
C1295      N1296   1.360       .  A
C1295      C1415   1.465       .  S
C1297      N1298   1.360       .  A
C1297      N1302   1.361       .  A
C1297      C1562   1.488       .  S
N1298      C1299   1.359       .  A
C1299      N1300   1.357       .  A
C1299      C1432   1.465       .  S
N1300      C1301   1.357       .  A
C1301      N1302   1.360       .  A
C1301      C1376   1.465       .  S
C1303      N1304   1.360       .  A
C1303      N1308   1.361       .  A
C1303      C1565   1.488       .  S
N1304      C1305   1.358       .  A
C1305      N1306   1.357       .  A
C1305      C1438   1.464       .  S
N1306      C1307   1.358       .  A
C1307      N1308   1.360       .  A
C1307      C1370   1.466       .  S
C1309      N1310   1.359       .  A
C1309      N1314   1.360       .  A
C1309      C1552   1.484       .  S
N1310      C1311   1.357       .  A
C1311      N1312   1.357       .  A
C1311      C1480   1.464       .  S
N1312      C1313   1.358       .  A
C1313      N1314   1.359       .  A
C1313      C1429   1.464       .  S
C1315      N1316   1.360       .  A
C1315      N1320   1.359       .  A
C1315      C1555   1.485       .  S
N1316      C1317   1.359       .  A
C1317      N1318   1.358       .  A
C1317      C1435   1.466       .  S
N1318      C1319   1.358       .  A
C1319      N1320   1.357       .  A
C1319      C1474   1.465       .  S
C1321      N1322   1.360       .  A
C1321      N1326   1.359       .  A
C1321      C1542   1.483       .  S
N1322      C1323   1.359       .  A
C1323      N1324   1.359       .  A
C1323      C1356   1.467       .  S
N1324      C1325   1.358       .  A
C1325      N1326   1.356       .  A
C1325      C1412   1.465       .  S
C1327      N1328   1.358       .  A
C1327      N1332   1.360       .  A
C1327      C1545   1.483       .  S
N1328      C1329   1.356       .  A
C1329      N1330   1.357       .  A
C1329      C1418   1.464       .  S
N1330      C1331   1.358       .  A
C1331      N1332   1.360       .  A
C1331      C1350   1.466       .  S
C1333      N1334   1.360       .  A
C1333      N1338   1.359       .  A
C1333      C1532   1.485       .  S
N1334      C1335   1.360       .  A
C1335      N1336   1.358       .  A
C1335      C1373   1.467       .  S
N1336      C1337   1.358       .  A
C1337      N1338   1.357       .  A
C1337      C1491   1.466       .  S
C1339      N1340   1.359       .  A
C1339      N1344   1.360       .  A
C1339      C1535   1.484       .  S
N1340      C1341   1.357       .  A
C1341      N1342   1.357       .  A
C1341      C1497   1.464       .  S
N1342      C1343   1.358       .  A
C1343      N1344   1.359       .  A
C1343      C1367   1.466       .  S
O1345     Zr1357   2.445       .  S
O1345      C1347   1.288       .  A
O1346     Zr1383   2.429       .  S
O1346      C1347   1.287       .  A
O1348     Zr1360   2.443       .  S
O1348      C1350   1.288       .  A
O1349     Zr1702   2.424       .  S
O1349      C1350   1.286       .  A
O1351     Zr1360   2.443       .  S
O1351      C1353   1.288       .  A
O1352     Zr1701   2.431       .  S
O1352      C1353   1.287       .  A
O1354     Zr1357   2.443       .  S
O1354      C1356   1.288       .  A
O1355     Zr1384   2.427       .  S
O1355      C1356   1.287       .  A
Zr1357     O1358   2.434       .  S
Zr1357     O1359   2.436       .  S
Zr1357     O1363   2.377       .  S
Zr1357     O1364   2.373       .  S
Zr1357     O1387   2.370       .  S
Zr1357     O1389   2.367       .  S
O1358      H1401   0.990       .  S
O1359      H1400   0.990       .  S
O1359      H1404   0.990       .  S
Zr1360     O1361   2.435       .  S
Zr1360     O1362   2.434       .  S
Zr1360     O1682   2.374       .  S
Zr1360     O1681   2.375       .  S
Zr1360     O1388   2.367       .  S
Zr1360     O1390   2.370       .  S
O1361      H1402   0.990       .  S
O1361      H1405   0.990       .  S
O1362      H1395   0.990       .  S
O1363     Zr1678   2.375   1_554  S
O1363     Zr1383   2.382       .  S
O1364     Zr1678   2.374   1_554  S
O1364     Zr1384   2.384       .  S
O1364      H1391   0.966       .  S
O1365     Zr1377   2.442       .  S
O1365      C1367   1.287       .  A
O1366     Zr1384   2.427       .  S
O1366      C1367   1.286       .  A
O1368     Zr1380   2.442       .  S
O1368      C1370   1.288       .  A
O1369     Zr1701   2.429       .  S
O1369      C1370   1.287       .  A
O1371     Zr1380   2.443       .  S
O1371      C1373   1.287       .  A
O1372     Zr1702   2.428       .  S
O1372      C1373   1.287       .  A
O1374     Zr1377   2.442       .  S
O1374      C1376   1.287       .  A
O1375     Zr1383   2.427       .  S
O1375      C1376   1.287       .  A
Zr1377     O1378   2.435       .  S
Zr1377     O1379   2.434       .  S
Zr1377     O1385   2.373       .  S
Zr1377     O1386   2.375       .  S
Zr1377     O1389   2.367       .  S
Zr1377     O1387   2.370       .  S
O1378      H1398   0.990       .  S
O1378      H1403   0.990       .  S
O1379      H1399   0.990       .  S
Zr1380     O1381   2.434       .  S
Zr1380     O1382   2.436       .  S
Zr1380     O1704   2.376       .  S
Zr1380     O1703   2.374       .  S
Zr1380     O1390   2.368       .  S
Zr1380     O1388   2.366       .  S
O1381      H1397   0.990       .  S
O1382      H1396   0.990       .  S
O1382      H1406   0.990       .  S
Zr1383     O1670   2.431   1_554  S
Zr1383     O1687   2.429   1_554  S
Zr1383     O1386   2.382       .  S
Zr1383     O1706   2.384   1_554  S
Zr1383     O1389   2.386       .  S
Zr1384     O1667   2.424   1_554  S
Zr1384     O1690   2.428   1_554  S
Zr1384     O1385   2.383       .  S
Zr1384     O1387   2.382       .  S
Zr1384     O1708   2.382   1_554  S
O1385     Zr1698   2.374   1_554  S
O1385      H1393   0.966       .  S
O1386     Zr1698   2.376   1_554  S
O1388     Zr1701   2.384       .  S
O1388      H1392   0.966       .  S
O1389      H1394   0.965       .  S
O1390     Zr1702   2.382       .  S
O1407      C1409   1.287       .  A
O1408     Zr1763   2.429       .  S
O1408      C1409   1.287       .  A
O1410     Zr1422   2.443       .  S
O1410      C1412   1.288       .  A
O1411     Zr1446   2.423       .  S
O1411      C1412   1.285       .  A
O1413      C1415   1.288       .  A
O1414     Zr1445   2.425       .  S
O1414      C1415   1.286       .  A
O1416     Zr1419   2.443       .  S
O1416      C1418   1.288       .  A
O1417     Zr1764   2.422       .  S
O1417      C1418   1.285       .  A
Zr1419     O1420   2.434       .  S
Zr1419     O1421   2.437       .  S
Zr1419     O1744   2.373       .  S
Zr1419     O1449   2.368       .  S
O1421      H1466   0.990       .  S
Zr1422     O1423   2.434       .  S
Zr1422     O1424   2.433       .  S
Zr1422     O1426   2.372       .  S
Zr1422     O1452   2.370       .  S
O1423      H1464   0.990       .  S
O1423      H1467   0.990       .  S
O1425     Zr1445   2.383       .  S
O1426     Zr1737   2.373   1_554  S
O1426     Zr1446   2.384       .  S
O1426      H1453   0.966       .  S
O1427     Zr1439   2.439       .  S
O1427      C1429   1.287       .  A
O1428     Zr1764   2.423       .  S
O1428      C1429   1.286       .  A
O1430      C1432   1.287       .  A
O1431     Zr1445   2.430       .  S
O1431      C1432   1.287       .  A
O1433     Zr1442   2.442       .  S
O1433      C1435   1.287       .  A
O1434     Zr1446   2.426       .  S
O1434      C1435   1.286       .  A
O1436      C1438   1.287       .  A
O1437     Zr1763   2.428       .  S
O1437      C1438   1.287       .  A
Zr1439     O1440   2.434       .  S
Zr1439     O1441   2.434       .  S
Zr1439     O1765   2.373       .  S
Zr1439     O1449   2.368       .  S
O1440      H1460   0.990       .  S
O1440      H1465   0.990       .  S
O1441      H1461   0.990       .  S
Zr1442     O1443   2.435       .  S
Zr1442     O1444   2.435       .  S
Zr1442     O1447   2.371       .  S
Zr1442     O1452   2.370       .  S
O1444      H1458   0.990       .  S
O1444      H1468   0.990       .  S
Zr1445     O1726   2.429   1_554  S
Zr1445     O1755   2.428   1_554  S
Zr1445     O1448   2.382       .  S
Zr1445     O1450   2.384       .  S
Zr1445     O1769   2.384   1_554  S
Zr1446     O1735   2.422   1_554  S
Zr1446     O1746   2.423   1_554  S
Zr1446     O1447   2.383       .  S
Zr1446     O1767   2.382   1_554  S
Zr1446     O1452   2.382       .  S
O1447     Zr1757   2.373   1_554  S
O1447      H1455   0.966       .  S
O1449     Zr1764   2.382       .  S
O1450      H1454   0.965       .  S
O1451     Zr1763   2.384       .  S
O1451      H1456   0.965       .  S
O1469     Zr1481   2.444       .  S
O1469      C1471   1.288       .  A
O1470     Zr1825   2.425       .  S
O1470      C1471   1.286       .  A
O1472     Zr2120   2.442   1_545  S
O1472      C1474   1.288       .  A
O1473     Zr1508   2.422       .  S
O1473      C1474   1.285       .  A
O1475     Zr1484   2.443       .  S
O1475      C1477   1.288       .  A
O1476     Zr1507   2.427       .  S
O1476      C1477   1.286       .  A
O1478     Zr2117   2.440   1_545  S
O1478      C1480   1.287       .  A
O1479     Zr1826   2.422       .  S
O1479      C1480   1.285       .  A
Zr1481     O2114   2.440       .  S
Zr1481     O1482   2.434       .  S
Zr1481     O2119   2.436       .  S
Zr1481     O1805   2.375       .  S
Zr1481     O2442   2.374       .  S
Zr1481     O2147   2.368       .  S
Zr1481     O1513   2.368       .  S
O1482      H1525   0.990       .  S
O1483     Zr2117   2.436       .  S
O1483      H2160   0.990       .  S
O1483      H2164   0.990       .  S
Zr1484     O2108   2.442       .  S
Zr1484     O1485   2.436       .  S
Zr1484     O2122   2.433       .  S
Zr1484     O2124   2.374       .  S
Zr1484     O1487   2.373       .  S
Zr1484     O1512   2.368       .  S
Zr1484     O2150   2.371       .  S
O1485      H2162   0.990       .  S
O1485      H1529   0.990       .  S
O1486     Zr2120   2.433       .  S
O1486      H2155   0.990       .  S
O1487     Zr1799   2.375   1_554  S
O1487     Zr1507   2.381       .  S
O1488     Zr2435   2.374   1_544  S
O1488     Zr2120   2.374   1_545  S
O1488     Zr1508   2.386       .  S
O1488      H1515   0.966       .  S
O1489     Zr2137   2.443   1_545  S
O1489      C1491   1.288       .  A
O1490     Zr1826   2.424       .  S
O1490      C1491   1.286       .  A
O1492     Zr1504   2.442       .  S
O1492      C1494   1.288       .  A
O1493     Zr1507   2.426       .  S
O1493      C1494   1.286       .  A
O1495     Zr2140   2.440   1_545  S
O1495      C1497   1.287       .  A
O1496     Zr1508   2.423       .  S
O1496      C1497   1.285       .  A
O1498     Zr1501   2.441       .  S
O1498      C1500   1.287       .  A
O1499     Zr1825   2.428       .  S
O1499      C1500   1.287       .  A
Zr1501     O2125   2.443       .  S
Zr1501     O1502   2.436       .  S
Zr1501     O1503   2.434       .  S
Zr1501     O2463   2.374       .  S
Zr1501     O1828   2.376       .  S
Zr1501     O1513   2.369       .  S
Zr1501     O2147   2.368       .  S
O1502      H2158   0.990       .  S
O1502      H1527   0.990       .  S
O1503      H2159   0.990       .  S
Zr1504     O2131   2.440       .  S
Zr1504     O1505   2.434       .  S
Zr1504     O1506   2.437       .  S
Zr1504     O1510   2.375       .  S
Zr1504     O2145   2.373       .  S
Zr1504     O2150   2.370       .  S
Zr1504     O1512   2.367       .  S
O1505      H1521   0.990       .  S
O1506      H2156   0.990       .  S
O1506      H1530   0.990       .  S
Zr1507     O1788   2.425   1_554  S
Zr1507     O1817   2.428   1_554  S
Zr1507     O1510   2.382       .  S
Zr1507     O1512   2.386       .  S
Zr1507     O1831   2.388   1_554  S
Zr1508     O1797   2.422   1_554  S
Zr1508     O1808   2.424   1_554  S
Zr1508     O1509   2.385       .  S
Zr1508     O1829   2.380   1_554  S
Zr1508     O1514   2.383       .  S
O1509     Zr2455   2.374   1_544  S
O1509     Zr2140   2.373   1_545  S
O1509      H1517   0.966       .  S
O1510     Zr1819   2.376   1_554  S
O1511     Zr2117   2.368   1_545  S
O1511     Zr2137   2.368   1_545  S
O1511     Zr1826   2.380       .  S
O1512      H1516   0.966       .  S
O1513     Zr1825   2.388       .  S
O1513      H1518   0.966       .  S
O1514     Zr2120   2.371   1_545  S
O1514     Zr2140   2.370   1_545  S
H1519      O2122   0.990       .  S
H1520      O2142   0.990   1_545  S
H1522      O2138   0.990   1_545  S
H1523      O2139   0.990   1_545  S
H1524      O2119   0.990       .  S
H1526      O2121   0.990   1_545  S
H1528      O2119   0.990       .  S
C1531      C1532   1.406       .  A
C1531      C1536   1.396       .  A
C1531      H1537   1.083       .  S
C1532      C1533   1.406       .  A
C1533      C1534   1.400       .  A
C1533      H1538   1.083       .  S
C1534      C1535   1.407       .  A
C1534      H1539   1.083       .  S
C1535      C1536   1.406       .  A
C1536      H1540   1.083       .  S
C1541      C1542   1.405       .  A
C1541      C1546   1.395       .  A
C1541      H1547   1.083       .  S
C1542      C1543   1.407       .  A
C1543      C1544   1.400       .  A
C1543      H1548   1.083       .  S
C1544      C1545   1.406       .  A
C1544      H1549   1.083       .  S
C1545      C1546   1.406       .  A
C1546      H1550   1.083       .  S
C1551      C1552   1.406       .  A
C1551      C1556   1.397       .  A
C1551      H1557   1.083       .  S
C1552      C1553   1.406       .  A
C1553      C1554   1.399       .  A
C1553      H1558   1.083       .  S
C1554      C1555   1.407       .  A
C1554      H1559   1.083       .  S
C1555      C1556   1.406       .  A
C1556      H1560   1.083       .  S
C1561      C1562   1.407       .  A
C1561      C1566   1.399       .  A
C1561      H1567   1.083       .  S
C1562      C1563   1.407       .  A
C1563      C1564   1.401       .  A
C1563      H1568   1.083       .  S
C1564      C1565   1.407       .  A
C1564      H1569   1.083       .  S
C1565      C1566   1.407       .  A
C1566      H1570   1.083       .  S
C1571      C1572   1.407       .  A
C1571      C1576   1.399       .  A
C1571      H1577   1.083       .  S
C1572      C1573   1.407       .  A
C1573      C1574   1.400       .  A
C1573      H1578   1.083       .  S
C1574      C1575   1.407       .  A
C1574      H1579   1.083       .  S
C1575      C1576   1.407       .  A
C1576      H1580   1.083       .  S
C1581      C1582   1.407       .  A
C1581      C1586   1.401       .  A
C1581      H1587   1.083       .  S
C1582      C1583   1.406       .  A
C1583      C1584   1.398       .  A
C1583      H1588   1.083       .  S
C1584      C1585   1.407       .  A
C1584      H1589   1.083       .  S
C1585      C1586   1.407       .  A
C1586      H1590   1.083       .  S
C1591      N1592   1.360       .  A
C1591      N1596   1.361       .  A
C1591      C1900   1.487       .  S
N1592      C1593   1.358       .  A
C1593      N1594   1.357       .  A
C1593      C1795   1.466       .  S
N1594      C1595   1.358       .  A
C1595      N1596   1.360       .  A
C1595      C1665   1.467       .  S
C1597      N1598   1.359       .  A
C1597      N1602   1.361       .  A
C1597      C1903   1.487       .  S
N1598      C1599   1.358       .  A
C1599      N1600   1.358       .  A
C1599      C1789   1.466       .  S
N1600      C1601   1.358       .  A
C1601      N1602   1.360       .  A
C1601      C1671   1.467       .  S
C1603      N1604   1.361       .  A
C1603      N1608   1.360       .  A
C1603      C1890   1.489       .  S
N1604      C1605   1.360       .  A
C1605      N1606   1.357       .  A
C1605      C1727   1.466       .  S
N1606      C1607   1.357       .  A
C1607      N1608   1.359       .  A
C1607      C1818   1.465       .  S
C1609      N1610   1.360       .  A
C1609      N1614   1.361       .  A
C1609      C1893   1.488       .  S
N1610      C1611   1.359       .  A
C1611      N1612   1.357       .  A
C1611      C1812   1.465       .  S
N1612      C1613   1.357       .  A
C1613      N1614   1.360       .  A
C1613      C1733   1.465       .  S
C1615      N1616   1.360       .  A
C1615      N1620   1.361       .  A
C1615      C1880   1.488       .  S
N1616      C1617   1.359       .  A
C1617      N1618   1.357       .  A
C1617      C1750   1.465       .  S
N1618      C1619   1.357       .  A
C1619      N1620   1.360       .  A
C1619      C1694   1.465       .  S
C1621      N1622   1.360       .  A
C1621      N1626   1.361       .  A
C1621      C1883   1.488       .  S
N1622      C1623   1.358       .  A
C1623      N1624   1.357       .  A
C1623      C1756   1.464       .  S
N1624      C1625   1.358       .  A
C1625      N1626   1.360       .  A
C1625      C1688   1.466       .  S
C1627      N1628   1.359       .  A
C1627      N1632   1.360       .  A
C1627      C1870   1.484       .  S
N1628      C1629   1.357       .  A
C1629      N1630   1.357       .  A
C1629      C1798   1.464       .  S
N1630      C1631   1.358       .  A
C1631      N1632   1.359       .  A
C1631      C1747   1.464       .  S
C1633      N1634   1.360       .  A
C1633      N1638   1.359       .  A
C1633      C1873   1.485       .  S
N1634      C1635   1.359       .  A
C1635      N1636   1.358       .  A
C1635      C1753   1.466       .  S
N1636      C1637   1.358       .  A
C1637      N1638   1.357       .  A
C1637      C1792   1.465       .  S
C1639      N1640   1.360       .  A
C1639      N1644   1.359       .  A
C1639      C1860   1.483       .  S
N1640      C1641   1.359       .  A
C1641      N1642   1.359       .  A
C1641      C1674   1.467       .  S
N1642      C1643   1.358       .  A
C1643      N1644   1.356       .  A
C1643      C1730   1.465       .  S
C1645      N1646   1.358       .  A
C1645      N1650   1.360       .  A
C1645      C1863   1.483       .  S
N1646      C1647   1.356       .  A
C1647      N1648   1.357       .  A
C1647      C1736   1.464       .  S
N1648      C1649   1.358       .  A
C1649      N1650   1.360       .  A
C1649      C1668   1.466       .  S
C1651      N1652   1.360       .  A
C1651      N1656   1.359       .  A
C1651      C1850   1.485       .  S
N1652      C1653   1.360       .  A
C1653      N1654   1.358       .  A
C1653      C1691   1.467       .  S
N1654      C1655   1.358       .  A
C1655      N1656   1.357       .  A
C1655      C1809   1.466       .  S
C1657      N1658   1.359       .  A
C1657      N1662   1.360       .  A
C1657      C1853   1.484       .  S
N1658      C1659   1.357       .  A
C1659      N1660   1.357       .  A
C1659      C1815   1.464       .  S
N1660      C1661   1.358       .  A
C1661      N1662   1.359       .  A
C1661      C1685   1.466       .  S
O1663     Zr1675   2.445       .  S
O1663      C1665   1.288       .  A
O1664     Zr1701   2.429       .  S
O1664      C1665   1.287       .  A
O1666     Zr1678   2.443       .  S
O1666      C1668   1.288       .  A
O1667      C1668   1.286       .  A
O1669     Zr1678   2.443       .  S
O1669      C1671   1.288       .  A
O1670      C1671   1.287       .  A
O1672     Zr1675   2.443       .  S
O1672      C1674   1.288       .  A
O1673     Zr1702   2.427       .  S
O1673      C1674   1.287       .  A
Zr1675     O1676   2.434       .  S
Zr1675     O1677   2.436       .  S
Zr1675     O1681   2.377       .  S
Zr1675     O1682   2.373       .  S
Zr1675     O1705   2.370       .  S
Zr1675     O1707   2.367       .  S
O1676      H1719   0.990       .  S
O1677      H1718   0.990       .  S
O1677      H1722   0.990       .  S
Zr1678     O1679   2.435       .  S
Zr1678     O1680   2.434       .  S
Zr1678     O1706   2.367       .  S
Zr1678     O1708   2.370       .  S
O1679      H1720   0.990       .  S
O1679      H1723   0.990       .  S
O1680      H1713   0.990       .  S
O1681     Zr1701   2.382       .  S
O1682     Zr1702   2.384       .  S
O1682      H1709   0.966       .  S
O1683     Zr1695   2.442       .  S
O1683      C1685   1.287       .  A
O1684     Zr1702   2.427       .  S
O1684      C1685   1.286       .  A
O1686     Zr1698   2.442       .  S
O1686      C1688   1.288       .  A
O1687      C1688   1.287       .  A
O1689     Zr1698   2.443       .  S
O1689      C1691   1.287       .  A
O1690      C1691   1.287       .  A
O1692     Zr1695   2.442       .  S
O1692      C1694   1.287       .  A
O1693     Zr1701   2.427       .  S
O1693      C1694   1.287       .  A
Zr1695     O1696   2.435       .  S
Zr1695     O1697   2.434       .  S
Zr1695     O1703   2.373       .  S
Zr1695     O1704   2.375       .  S
Zr1695     O1707   2.367       .  S
Zr1695     O1705   2.370       .  S
O1696      H1716   0.990       .  S
O1696      H1721   0.990       .  S
O1697      H1717   0.990       .  S
Zr1698     O1699   2.434       .  S
Zr1698     O1700   2.436       .  S
Zr1698     O1708   2.368       .  S
Zr1698     O1706   2.366       .  S
O1699      H1715   0.990       .  S
O1700      H1714   0.990       .  S
O1700      H1724   0.990       .  S
Zr1701     O1704   2.382       .  S
Zr1701     O1707   2.386       .  S
Zr1702     O1703   2.383       .  S
Zr1702     O1705   2.382       .  S
O1703      H1711   0.966       .  S
O1706      H1710   0.966       .  S
O1707      H1712   0.965       .  S
O1725      C1727   1.287       .  A
O1726      C1727   1.287       .  A
O1728     Zr1740   2.443       .  S
O1728      C1730   1.288       .  A
O1729     Zr1764   2.423       .  S
O1729      C1730   1.285       .  A
O1731      C1733   1.288       .  A
O1732     Zr1763   2.425       .  S
O1732      C1733   1.286       .  A
O1734     Zr1737   2.443       .  S
O1734      C1736   1.288       .  A
O1735      C1736   1.285       .  A
Zr1737     O1738   2.434       .  S
Zr1737     O1739   2.437       .  S
Zr1737     O1767   2.368       .  S
O1739      H1784   0.990       .  S
Zr1740     O1741   2.434       .  S
Zr1740     O1742   2.433       .  S
Zr1740     O1744   2.372       .  S
Zr1740     O1770   2.370       .  S
O1741      H1782   0.990       .  S
O1741      H1785   0.990       .  S
O1743     Zr1763   2.383       .  S
O1744     Zr1764   2.384       .  S
O1744      H1771   0.966       .  S
O1745     Zr1757   2.439       .  S
O1745      C1747   1.287       .  A
O1746      C1747   1.286       .  A
O1748      C1750   1.287       .  A
O1749     Zr1763   2.430       .  S
O1749      C1750   1.287       .  A
O1751     Zr1760   2.442       .  S
O1751      C1753   1.287       .  A
O1752     Zr1764   2.426       .  S
O1752      C1753   1.286       .  A
O1754      C1756   1.287       .  A
O1755      C1756   1.287       .  A
Zr1757     O1758   2.434       .  S
Zr1757     O1759   2.434       .  S
Zr1757     O1767   2.368       .  S
O1758      H1778   0.990       .  S
O1758      H1783   0.990       .  S
O1759      H1779   0.990       .  S
Zr1760     O1761   2.435       .  S
Zr1760     O1762   2.435       .  S
Zr1760     O1765   2.371       .  S
Zr1760     O1770   2.370       .  S
O1762      H1776   0.990       .  S
O1762      H1786   0.990       .  S
Zr1763     O1766   2.382       .  S
Zr1763     O1768   2.384       .  S
Zr1764     O1765   2.383       .  S
Zr1764     O1770   2.382       .  S
O1765      H1773   0.966       .  S
O1768      H1772   0.965       .  S
O1769      H1774   0.965       .  S
O1787     Zr1799   2.444       .  S
O1787      C1789   1.288       .  A
O1788      C1789   1.286       .  A
O1790     Zr2438   2.442   1_545  S
O1790      C1792   1.288       .  A
O1791     Zr1826   2.422       .  S
O1791      C1792   1.285       .  A
O1793     Zr1802   2.443       .  S
O1793      C1795   1.288       .  A
O1794     Zr1825   2.427       .  S
O1794      C1795   1.286       .  A
O1796     Zr2435   2.440   1_545  S
O1796      C1798   1.287       .  A
O1797      C1798   1.285       .  A
Zr1799     O2432   2.440       .  S
Zr1799     O1800   2.434       .  S
Zr1799     O2437   2.436       .  S
Zr1799     O2124   2.374   1_556  S
Zr1799     O2465   2.368       .  S
Zr1799     O1831   2.368       .  S
O1800      H1843   0.990       .  S
O1801     Zr2435   2.436       .  S
O1801      H2478   0.990       .  S
O1801      H2482   0.990       .  S
Zr1802     O2426   2.442       .  S
Zr1802     O1803   2.436       .  S
Zr1802     O2440   2.433       .  S
Zr1802     O2442   2.374       .  S
Zr1802     O1805   2.373       .  S
Zr1802     O1830   2.368       .  S
Zr1802     O2468   2.371       .  S
O1803      H2480   0.990       .  S
O1803      H1847   0.990       .  S
O1804     Zr2438   2.433       .  S
O1804      H2473   0.990       .  S
O1805     Zr1825   2.381       .  S
O1806     Zr2117   2.374   1_545  S
O1806     Zr2438   2.374   1_545  S
O1806     Zr1826   2.386       .  S
O1806      H1833   0.966       .  S
O1807     Zr2455   2.443   1_545  S
O1807      C1809   1.288       .  A
O1808      C1809   1.286       .  A
O1810     Zr1822   2.442       .  S
O1810      C1812   1.288       .  A
O1811     Zr1825   2.426       .  S
O1811      C1812   1.286       .  A
O1813     Zr2458   2.440   1_545  S
O1813      C1815   1.287       .  A
O1814     Zr1826   2.423       .  S
O1814      C1815   1.285       .  A
O1816     Zr1819   2.441       .  S
O1816      C1818   1.287       .  A
O1817      C1818   1.287       .  A
Zr1819     O2443   2.443       .  S
Zr1819     O1820   2.436       .  S
Zr1819     O1821   2.434       .  S
Zr1819     O2145   2.374   1_556  S
Zr1819     O1831   2.369       .  S
Zr1819     O2465   2.368       .  S
O1820      H2476   0.990       .  S
O1820      H1845   0.990       .  S
O1821      H2477   0.990       .  S
Zr1822     O2449   2.440       .  S
Zr1822     O1823   2.434       .  S
Zr1822     O1824   2.437       .  S
Zr1822     O1828   2.375       .  S
Zr1822     O2463   2.373       .  S
Zr1822     O2468   2.370       .  S
Zr1822     O1830   2.367       .  S
O1823      H1839   0.990       .  S
O1824      H2474   0.990       .  S
O1824      H1848   0.990       .  S
Zr1825     O1828   2.382       .  S
Zr1825     O1830   2.386       .  S
Zr1826     O1827   2.385       .  S
Zr1826     O1832   2.383       .  S
O1827     Zr2137   2.374   1_545  S
O1827     Zr2458   2.373   1_545  S
O1827      H1835   0.966       .  S
O1829     Zr2435   2.368   1_545  S
O1829     Zr2455   2.368   1_545  S
O1830      H1834   0.966       .  S
O1831      H1836   0.966       .  S
O1832     Zr2438   2.371   1_545  S
O1832     Zr2458   2.370   1_545  S
H1837      O2440   0.990       .  S
H1838      O2460   0.990   1_545  S
H1840      O2456   0.990   1_545  S
H1841      O2457   0.990   1_545  S
H1842      O2437   0.990       .  S
H1844      O2439   0.990   1_545  S
H1846      O2437   0.990       .  S
C1849      C1850   1.406       .  A
C1849      C1854   1.396       .  A
C1849      H1855   1.083       .  S
C1850      C1851   1.406       .  A
C1851      C1852   1.400       .  A
C1851      H1856   1.083       .  S
C1852      C1853   1.407       .  A
C1852      H1857   1.083       .  S
C1853      C1854   1.406       .  A
C1854      H1858   1.083       .  S
C1859      C1860   1.405       .  A
C1859      C1864   1.395       .  A
C1859      H1865   1.083       .  S
C1860      C1861   1.407       .  A
C1861      C1862   1.400       .  A
C1861      H1866   1.083       .  S
C1862      C1863   1.406       .  A
C1862      H1867   1.083       .  S
C1863      C1864   1.406       .  A
C1864      H1868   1.083       .  S
C1869      C1870   1.406       .  A
C1869      C1874   1.397       .  A
C1869      H1875   1.083       .  S
C1870      C1871   1.406       .  A
C1871      C1872   1.399       .  A
C1871      H1876   1.083       .  S
C1872      C1873   1.407       .  A
C1872      H1877   1.083       .  S
C1873      C1874   1.406       .  A
C1874      H1878   1.083       .  S
C1879      C1880   1.407       .  A
C1879      C1884   1.399       .  A
C1879      H1885   1.083       .  S
C1880      C1881   1.407       .  A
C1881      C1882   1.401       .  A
C1881      H1886   1.083       .  S
C1882      C1883   1.407       .  A
C1882      H1887   1.083       .  S
C1883      C1884   1.407       .  A
C1884      H1888   1.083       .  S
C1889      C1890   1.407       .  A
C1889      C1894   1.399       .  A
C1889      H1895   1.083       .  S
C1890      C1891   1.407       .  A
C1891      C1892   1.400       .  A
C1891      H1896   1.083       .  S
C1892      C1893   1.407       .  A
C1892      H1897   1.083       .  S
C1893      C1894   1.407       .  A
C1894      H1898   1.083       .  S
C1899      C1900   1.407       .  A
C1899      C1904   1.401       .  A
C1899      H1905   1.083       .  S
C1900      C1901   1.406       .  A
C1901      C1902   1.398       .  A
C1901      H1906   1.083       .  S
C1902      C1903   1.407       .  A
C1902      H1907   1.083       .  S
C1903      C1904   1.407       .  A
C1904      H1908   1.083       .  S
C1909      N1910   1.360       .  A
C1909      N1914   1.361       .  A
C1909      C2218   1.487       .  S
N1910      C1911   1.358       .  A
C1911      N1912   1.357       .  A
C1911      C2113   1.466       .  S
N1912      C1913   1.358       .  A
C1913      N1914   1.360       .  A
C1913      C1983   1.467       .  S
C1915      N1916   1.359       .  A
C1915      N1920   1.361       .  A
C1915      C2221   1.487       .  S
N1916      C1917   1.358       .  A
C1917      N1918   1.358       .  A
C1917      C2107   1.466       .  S
N1918      C1919   1.358       .  A
C1919      N1920   1.360       .  A
C1919      C1989   1.467       .  S
C1921      N1922   1.361       .  A
C1921      N1926   1.360       .  A
C1921      C2208   1.489       .  S
N1922      C1923   1.360       .  A
C1923      N1924   1.357       .  A
C1923      C2045   1.466       .  S
N1924      C1925   1.357       .  A
C1925      N1926   1.359       .  A
C1925      C2136   1.465       .  S
C1927      N1928   1.360       .  A
C1927      N1932   1.361       .  A
C1927      C2211   1.488       .  S
N1928      C1929   1.359       .  A
C1929      N1930   1.357       .  A
C1929      C2130   1.465       .  S
N1930      C1931   1.357       .  A
C1931      N1932   1.360       .  A
C1931      C2051   1.465       .  S
C1933      N1934   1.360       .  A
C1933      N1938   1.361       .  A
C1933      C2198   1.488       .  S
N1934      C1935   1.359       .  A
C1935      N1936   1.357       .  A
C1935      C2068   1.465       .  S
N1936      C1937   1.357       .  A
C1937      N1938   1.360       .  A
C1937      C2012   1.465       .  S
C1939      N1940   1.360       .  A
C1939      N1944   1.361       .  A
C1939      C2201   1.488       .  S
N1940      C1941   1.358       .  A
C1941      N1942   1.357       .  A
C1941      C2074   1.464       .  S
N1942      C1943   1.358       .  A
C1943      N1944   1.360       .  A
C1943      C2006   1.466       .  S
C1945      N1946   1.359       .  A
C1945      N1950   1.360       .  A
C1945      C2188   1.484       .  S
N1946      C1947   1.357       .  A
C1947      N1948   1.357       .  A
C1947      C2116   1.464       .  S
N1948      C1949   1.358       .  A
C1949      N1950   1.359       .  A
C1949      C2065   1.464       .  S
C1951      N1952   1.360       .  A
C1951      N1956   1.359       .  A
C1951      C2191   1.485       .  S
N1952      C1953   1.359       .  A
C1953      N1954   1.358       .  A
C1953      C2071   1.466       .  S
N1954      C1955   1.358       .  A
C1955      N1956   1.357       .  A
C1955      C2110   1.465       .  S
C1957      N1958   1.360       .  A
C1957      N1962   1.359       .  A
C1957      C2178   1.483       .  S
N1958      C1959   1.359       .  A
C1959      N1960   1.359       .  A
C1959      C1992   1.467       .  S
N1960      C1961   1.358       .  A
C1961      N1962   1.356       .  A
C1961      C2048   1.465       .  S
C1963      N1964   1.358       .  A
C1963      N1968   1.360       .  A
C1963      C2181   1.483       .  S
N1964      C1965   1.356       .  A
C1965      N1966   1.357       .  A
C1965      C2054   1.464       .  S
N1966      C1967   1.358       .  A
C1967      N1968   1.360       .  A
C1967      C1986   1.466       .  S
C1969      N1970   1.360       .  A
C1969      N1974   1.359       .  A
C1969      C2168   1.485       .  S
N1970      C1971   1.360       .  A
C1971      N1972   1.358       .  A
C1971      C2009   1.467       .  S
N1972      C1973   1.358       .  A
C1973      N1974   1.357       .  A
C1973      C2127   1.466       .  S
C1975      N1976   1.359       .  A
C1975      N1980   1.360       .  A
C1975      C2171   1.484       .  S
N1976      C1977   1.357       .  A
C1977      N1978   1.357       .  A
C1977      C2133   1.464       .  S
N1978      C1979   1.358       .  A
C1979      N1980   1.359       .  A
C1979      C2003   1.466       .  S
O1981     Zr1993   2.445       .  S
O1981      C1983   1.288       .  A
O1982     Zr2019   2.429       .  S
O1982      C1983   1.287       .  A
O1984     Zr1996   2.443       .  S
O1984      C1986   1.288       .  A
O1985     Zr2338   2.424       .  S
O1985      C1986   1.286       .  A
O1987     Zr1996   2.443       .  S
O1987      C1989   1.288       .  A
O1988     Zr2337   2.431       .  S
O1988      C1989   1.287       .  A
O1990     Zr1993   2.443       .  S
O1990      C1992   1.288       .  A
O1991     Zr2020   2.427       .  S
O1991      C1992   1.287       .  A
Zr1993     O1994   2.434       .  S
Zr1993     O1995   2.436       .  S
Zr1993     O1999   2.377       .  S
Zr1993     O2000   2.373       .  S
Zr1993     O2023   2.370       .  S
Zr1993     O2025   2.367       .  S
O1994      H2037   0.990       .  S
O1995      H2036   0.990       .  S
O1995      H2040   0.990       .  S
Zr1996     O1997   2.435       .  S
Zr1996     O1998   2.434       .  S
Zr1996     O2318   2.374       .  S
Zr1996     O2317   2.375       .  S
Zr1996     O2024   2.366       .  S
Zr1996     O2026   2.370       .  S
O1997      H2038   0.990       .  S
O1997      H2041   0.990       .  S
O1998      H2031   0.990       .  S
O1999     Zr2314   2.375   1_554  S
O1999     Zr2019   2.382       .  S
O2000     Zr2314   2.374   1_554  S
O2000     Zr2020   2.384       .  S
O2000      H2027   0.966       .  S
O2001     Zr2013   2.442       .  S
O2001      C2003   1.287       .  A
O2002     Zr2020   2.427       .  S
O2002      C2003   1.286       .  A
O2004     Zr2016   2.442       .  S
O2004      C2006   1.288       .  A
O2005     Zr2337   2.429       .  S
O2005      C2006   1.287       .  A
O2007     Zr2016   2.443       .  S
O2007      C2009   1.287       .  A
O2008     Zr2338   2.428       .  S
O2008      C2009   1.287       .  A
O2010     Zr2013   2.442       .  S
O2010      C2012   1.287       .  A
O2011     Zr2019   2.427       .  S
O2011      C2012   1.287       .  A
Zr2013     O2014   2.435       .  S
Zr2013     O2015   2.434       .  S
Zr2013     O2021   2.373       .  S
Zr2013     O2022   2.375       .  S
Zr2013     O2025   2.367       .  S
Zr2013     O2023   2.370       .  S
O2014      H2034   0.990       .  S
O2014      H2039   0.990       .  S
O2015      H2035   0.990       .  S
Zr2016     O2017   2.434       .  S
Zr2016     O2018   2.436       .  S
Zr2016     O2340   2.376       .  S
Zr2016     O2339   2.374       .  S
Zr2016     O2026   2.368       .  S
Zr2016     O2024   2.366       .  S
O2017      H2033   0.990       .  S
O2018      H2032   0.990       .  S
O2018      H2042   0.990       .  S
Zr2019     O2306   2.431   1_554  S
Zr2019     O2323   2.429   1_554  S
Zr2019     O2022   2.382       .  S
Zr2019     O2342   2.384   1_554  S
Zr2019     O2025   2.386       .  S
Zr2020     O2303   2.424   1_554  S
Zr2020     O2326   2.428   1_554  S
Zr2020     O2021   2.383       .  S
Zr2020     O2023   2.382       .  S
Zr2020     O2344   2.382   1_554  S
O2021     Zr2334   2.374   1_554  S
O2021      H2029   0.966       .  S
O2022     Zr2334   2.376   1_554  S
O2024     Zr2337   2.384       .  S
O2024      H2028   0.966       .  S
O2025      H2030   0.965       .  S
O2026     Zr2338   2.382       .  S
O2043      C2045   1.287       .  A
O2044     Zr2399   2.429       .  S
O2044      C2045   1.287       .  A
O2046     Zr2058   2.443       .  S
O2046      C2048   1.288       .  A
O2047     Zr2082   2.423       .  S
O2047      C2048   1.285       .  A
O2049      C2051   1.288       .  A
O2050     Zr2081   2.425       .  S
O2050      C2051   1.286       .  A
O2052     Zr2055   2.443       .  S
O2052      C2054   1.288       .  A
O2053     Zr2400   2.422       .  S
O2053      C2054   1.285       .  A
Zr2055     O2056   2.434       .  S
Zr2055     O2057   2.437       .  S
Zr2055     O2380   2.373       .  S
Zr2055     O2085   2.368       .  S
O2057      H2102   0.990       .  S
Zr2058     O2059   2.434       .  S
Zr2058     O2060   2.433       .  S
Zr2058     O2062   2.372       .  S
Zr2058     O2088   2.370       .  S
O2059      H2100   0.990       .  S
O2059      H2103   0.990       .  S
O2061     Zr2081   2.383       .  S
O2062     Zr2373   2.373   1_554  S
O2062     Zr2082   2.384       .  S
O2062      H2089   0.966       .  S
O2063     Zr2075   2.439       .  S
O2063      C2065   1.287       .  A
O2064     Zr2400   2.423       .  S
O2064      C2065   1.286       .  A
O2066      C2068   1.287       .  A
O2067     Zr2081   2.430       .  S
O2067      C2068   1.287       .  A
O2069     Zr2078   2.442       .  S
O2069      C2071   1.287       .  A
O2070     Zr2082   2.426       .  S
O2070      C2071   1.286       .  A
O2072      C2074   1.287       .  A
O2073     Zr2399   2.428       .  S
O2073      C2074   1.287       .  A
Zr2075     O2076   2.434       .  S
Zr2075     O2077   2.434       .  S
Zr2075     O2401   2.373       .  S
Zr2075     O2085   2.368       .  S
O2076      H2096   0.990       .  S
O2076      H2101   0.990       .  S
O2077      H2097   0.990       .  S
Zr2078     O2079   2.435       .  S
Zr2078     O2080   2.435       .  S
Zr2078     O2083   2.371       .  S
Zr2078     O2088   2.370       .  S
O2080      H2094   0.990       .  S
O2080      H2104   0.990       .  S
Zr2081     O2362   2.429   1_554  S
Zr2081     O2391   2.428   1_554  S
Zr2081     O2084   2.382       .  S
Zr2081     O2086   2.384       .  S
Zr2081     O2405   2.384   1_554  S
Zr2082     O2371   2.422   1_554  S
Zr2082     O2382   2.423   1_554  S
Zr2082     O2083   2.383       .  S
Zr2082     O2403   2.382   1_554  S
Zr2082     O2088   2.382       .  S
O2083     Zr2393   2.373   1_554  S
O2083      H2091   0.966       .  S
O2085     Zr2400   2.382       .  S
O2086      H2090   0.965       .  S
O2087     Zr2399   2.384       .  S
O2087      H2092   0.965       .  S
O2105     Zr2117   2.444       .  S
O2105      C2107   1.288       .  A
O2106     Zr2461   2.425       .  S
O2106      C2107   1.286       .  A
O2108      C2110   1.288       .  A
O2109     Zr2144   2.422       .  S
O2109      C2110   1.285       .  A
O2111     Zr2120   2.443       .  S
O2111      C2113   1.288       .  A
O2112     Zr2143   2.427       .  S
O2112      C2113   1.286       .  A
O2114      C2116   1.287       .  A
O2115     Zr2462   2.422       .  S
O2115      C2116   1.285       .  A
Zr2117     O2118   2.434       .  S
Zr2117     O2441   2.375       .  S
Zr2117     O2149   2.368       .  S
O2118      H2161   0.990       .  S
Zr2120     O2121   2.436       .  S
Zr2120     O2123   2.373       .  S
Zr2120     O2148   2.368       .  S
O2121      H2165   0.990       .  S
O2123     Zr2435   2.375   1_554  S
O2123     Zr2143   2.381       .  S
O2124     Zr2144   2.386       .  S
O2124      H2151   0.966       .  S
O2125      C2127   1.288       .  A
O2126     Zr2462   2.424       .  S
O2126      C2127   1.286       .  A
O2128     Zr2140   2.442       .  S
O2128      C2130   1.288       .  A
O2129     Zr2143   2.426       .  S
O2129      C2130   1.286       .  A
O2131      C2133   1.287       .  A
O2132     Zr2144   2.423       .  S
O2132      C2133   1.285       .  A
O2134     Zr2137   2.441       .  S
O2134      C2136   1.287       .  A
O2135     Zr2461   2.428       .  S
O2135      C2136   1.287       .  A
Zr2137     O2138   2.436       .  S
Zr2137     O2139   2.434       .  S
Zr2137     O2464   2.376       .  S
Zr2137     O2149   2.369       .  S
O2138      H2163   0.990       .  S
Zr2140     O2141   2.434       .  S
Zr2140     O2142   2.437       .  S
Zr2140     O2146   2.375       .  S
Zr2140     O2148   2.367       .  S
O2141      H2157   0.990       .  S
O2142      H2166   0.990   1_565  S
Zr2143     O2424   2.425   1_554  S
Zr2143     O2453   2.428   1_554  S
Zr2143     O2146   2.382       .  S
Zr2143     O2148   2.386       .  S
Zr2143     O2467   2.388   1_554  S
Zr2144     O2433   2.422   1_554  S
Zr2144     O2444   2.424   1_554  S
Zr2144     O2145   2.385       .  S
Zr2144     O2465   2.380   1_554  S
Zr2144     O2150   2.383       .  S
O2145      H2153   0.966       .  S
O2146     Zr2455   2.376   1_554  S
O2147     Zr2462   2.380       .  S
O2148      H2152   0.966       .  S
O2149     Zr2461   2.388       .  S
O2149      H2154   0.966       .  S
C2167      C2168   1.406       .  A
C2167      C2172   1.396       .  A
C2167      H2173   1.083       .  S
C2168      C2169   1.406       .  A
C2169      C2170   1.400       .  A
C2169      H2174   1.083       .  S
C2170      C2171   1.407       .  A
C2170      H2175   1.083       .  S
C2171      C2172   1.406       .  A
C2172      H2176   1.083       .  S
C2177      C2178   1.405       .  A
C2177      C2182   1.395       .  A
C2177      H2183   1.083       .  S
C2178      C2179   1.407       .  A
C2179      C2180   1.400       .  A
C2179      H2184   1.083       .  S
C2180      C2181   1.406       .  A
C2180      H2185   1.083       .  S
C2181      C2182   1.406       .  A
C2182      H2186   1.083       .  S
C2187      C2188   1.406       .  A
C2187      C2192   1.397       .  A
C2187      H2193   1.083       .  S
C2188      C2189   1.406       .  A
C2189      C2190   1.399       .  A
C2189      H2194   1.083       .  S
C2190      C2191   1.407       .  A
C2190      H2195   1.083       .  S
C2191      C2192   1.406       .  A
C2192      H2196   1.083       .  S
C2197      C2198   1.407       .  A
C2197      C2202   1.399       .  A
C2197      H2203   1.083       .  S
C2198      C2199   1.407       .  A
C2199      C2200   1.401       .  A
C2199      H2204   1.083       .  S
C2200      C2201   1.407       .  A
C2200      H2205   1.083       .  S
C2201      C2202   1.407       .  A
C2202      H2206   1.083       .  S
C2207      C2208   1.407       .  A
C2207      C2212   1.399       .  A
C2207      H2213   1.083       .  S
C2208      C2209   1.407       .  A
C2209      C2210   1.400       .  A
C2209      H2214   1.083       .  S
C2210      C2211   1.407       .  A
C2210      H2215   1.083       .  S
C2211      C2212   1.407       .  A
C2212      H2216   1.083       .  S
C2217      C2218   1.407       .  A
C2217      C2222   1.401       .  A
C2217      H2223   1.083       .  S
C2218      C2219   1.406       .  A
C2219      C2220   1.398       .  A
C2219      H2224   1.083       .  S
C2220      C2221   1.407       .  A
C2220      H2225   1.083       .  S
C2221      C2222   1.407       .  A
C2222      H2226   1.083       .  S
C2227      N2228   1.360       .  A
C2227      N2232   1.361       .  A
C2227      C2536   1.487       .  S
N2228      C2229   1.358       .  A
C2229      N2230   1.357       .  A
C2229      C2431   1.466       .  S
N2230      C2231   1.358       .  A
C2231      N2232   1.360       .  A
C2231      C2301   1.467       .  S
C2233      N2234   1.359       .  A
C2233      N2238   1.361       .  A
C2233      C2539   1.487       .  S
N2234      C2235   1.358       .  A
C2235      N2236   1.358       .  A
C2235      C2425   1.466       .  S
N2236      C2237   1.358       .  A
C2237      N2238   1.360       .  A
C2237      C2307   1.467       .  S
C2239      N2240   1.361       .  A
C2239      N2244   1.360       .  A
C2239      C2526   1.489       .  S
N2240      C2241   1.360       .  A
C2241      N2242   1.357       .  A
C2241      C2363   1.466       .  S
N2242      C2243   1.357       .  A
C2243      N2244   1.359       .  A
C2243      C2454   1.465       .  S
C2245      N2246   1.360       .  A
C2245      N2250   1.361       .  A
C2245      C2529   1.488       .  S
N2246      C2247   1.359       .  A
C2247      N2248   1.357       .  A
C2247      C2448   1.465       .  S
N2248      C2249   1.357       .  A
C2249      N2250   1.360       .  A
C2249      C2369   1.465       .  S
C2251      N2252   1.360       .  A
C2251      N2256   1.361       .  A
C2251      C2516   1.488       .  S
N2252      C2253   1.359       .  A
C2253      N2254   1.357       .  A
C2253      C2386   1.465       .  S
N2254      C2255   1.357       .  A
C2255      N2256   1.360       .  A
C2255      C2330   1.465       .  S
C2257      N2258   1.360       .  A
C2257      N2262   1.361       .  A
C2257      C2519   1.488       .  S
N2258      C2259   1.358       .  A
C2259      N2260   1.357       .  A
C2259      C2392   1.464       .  S
N2260      C2261   1.358       .  A
C2261      N2262   1.360       .  A
C2261      C2324   1.466       .  S
C2263      N2264   1.359       .  A
C2263      N2268   1.360       .  A
C2263      C2506   1.484       .  S
N2264      C2265   1.357       .  A
C2265      N2266   1.357       .  A
C2265      C2434   1.464       .  S
N2266      C2267   1.358       .  A
C2267      N2268   1.359       .  A
C2267      C2383   1.464       .  S
C2269      N2270   1.360       .  A
C2269      N2274   1.359       .  A
C2269      C2509   1.485       .  S
N2270      C2271   1.359       .  A
C2271      N2272   1.358       .  A
C2271      C2389   1.466       .  S
N2272      C2273   1.358       .  A
C2273      N2274   1.357       .  A
C2273      C2428   1.465       .  S
C2275      N2276   1.360       .  A
C2275      N2280   1.359       .  A
C2275      C2496   1.483       .  S
N2276      C2277   1.359       .  A
C2277      N2278   1.359       .  A
C2277      C2310   1.467       .  S
N2278      C2279   1.358       .  A
C2279      N2280   1.356       .  A
C2279      C2366   1.465       .  S
C2281      N2282   1.358       .  A
C2281      N2286   1.360       .  A
C2281      C2499   1.483       .  S
N2282      C2283   1.356       .  A
C2283      N2284   1.357       .  A
C2283      C2372   1.464       .  S
N2284      C2285   1.358       .  A
C2285      N2286   1.360       .  A
C2285      C2304   1.466       .  S
C2287      N2288   1.360       .  A
C2287      N2292   1.359       .  A
C2287      C2486   1.485       .  S
N2288      C2289   1.360       .  A
C2289      N2290   1.358       .  A
C2289      C2327   1.467       .  S
N2290      C2291   1.358       .  A
C2291      N2292   1.357       .  A
C2291      C2445   1.466       .  S
C2293      N2294   1.359       .  A
C2293      N2298   1.360       .  A
C2293      C2489   1.484       .  S
N2294      C2295   1.357       .  A
C2295      N2296   1.357       .  A
C2295      C2451   1.464       .  S
N2296      C2297   1.358       .  A
C2297      N2298   1.359       .  A
C2297      C2321   1.466       .  S
O2299     Zr2311   2.445       .  S
O2299      C2301   1.288       .  A
O2300     Zr2337   2.429       .  S
O2300      C2301   1.287       .  A
O2302     Zr2314   2.443       .  S
O2302      C2304   1.288       .  A
O2303      C2304   1.286       .  A
O2305     Zr2314   2.443       .  S
O2305      C2307   1.288       .  A
O2306      C2307   1.287       .  A
O2308     Zr2311   2.443       .  S
O2308      C2310   1.288       .  A
O2309     Zr2338   2.427       .  S
O2309      C2310   1.287       .  A
Zr2311     O2312   2.434       .  S
Zr2311     O2313   2.436       .  S
Zr2311     O2317   2.377       .  S
Zr2311     O2318   2.373       .  S
Zr2311     O2341   2.370       .  S
Zr2311     O2343   2.367       .  S
O2312      H2355   0.990       .  S
O2313      H2354   0.990       .  S
O2313      H2358   0.990       .  S
Zr2314     O2315   2.435       .  S
Zr2314     O2316   2.434       .  S
Zr2314     O2342   2.367       .  S
Zr2314     O2344   2.370       .  S
O2315      H2356   0.990       .  S
O2315      H2359   0.990       .  S
O2316      H2349   0.990       .  S
O2317     Zr2337   2.382       .  S
O2318     Zr2338   2.384       .  S
O2318      H2345   0.966       .  S
O2319     Zr2331   2.442       .  S
O2319      C2321   1.287       .  A
O2320     Zr2338   2.427       .  S
O2320      C2321   1.286       .  A
O2322     Zr2334   2.442       .  S
O2322      C2324   1.288       .  A
O2323      C2324   1.287       .  A
O2325     Zr2334   2.443       .  S
O2325      C2327   1.287       .  A
O2326      C2327   1.287       .  A
O2328     Zr2331   2.442       .  S
O2328      C2330   1.287       .  A
O2329     Zr2337   2.427       .  S
O2329      C2330   1.287       .  A
Zr2331     O2332   2.435       .  S
Zr2331     O2333   2.434       .  S
Zr2331     O2339   2.373       .  S
Zr2331     O2340   2.375       .  S
Zr2331     O2343   2.367       .  S
Zr2331     O2341   2.370       .  S
O2332      H2352   0.990       .  S
O2332      H2357   0.990       .  S
O2333      H2353   0.990       .  S
Zr2334     O2335   2.434       .  S
Zr2334     O2336   2.436       .  S
Zr2334     O2344   2.368       .  S
Zr2334     O2342   2.366       .  S
O2335      H2351   0.990       .  S
O2336      H2350   0.990       .  S
O2336      H2360   0.990       .  S
Zr2337     O2340   2.382       .  S
Zr2337     O2343   2.386       .  S
Zr2338     O2339   2.383       .  S
Zr2338     O2341   2.382       .  S
O2339      H2347   0.966       .  S
O2342      H2346   0.966       .  S
O2343      H2348   0.965       .  S
O2361      C2363   1.287       .  A
O2362      C2363   1.287       .  A
O2364     Zr2376   2.443       .  S
O2364      C2366   1.288       .  A
O2365     Zr2400   2.423       .  S
O2365      C2366   1.285       .  A
O2367      C2369   1.288       .  A
O2368     Zr2399   2.425       .  S
O2368      C2369   1.286       .  A
O2370     Zr2373   2.443       .  S
O2370      C2372   1.288       .  A
O2371      C2372   1.285       .  A
Zr2373     O2374   2.434       .  S
Zr2373     O2375   2.437       .  S
Zr2373     O2403   2.368       .  S
O2375      H2420   0.990       .  S
Zr2376     O2377   2.434       .  S
Zr2376     O2378   2.433       .  S
Zr2376     O2380   2.372       .  S
Zr2376     O2406   2.370       .  S
O2377      H2418   0.990       .  S
O2377      H2421   0.990       .  S
O2379     Zr2399   2.383       .  S
O2380     Zr2400   2.384       .  S
O2380      H2407   0.966       .  S
O2381     Zr2393   2.439       .  S
O2381      C2383   1.287       .  A
O2382      C2383   1.286       .  A
O2384      C2386   1.287       .  A
O2385     Zr2399   2.430       .  S
O2385      C2386   1.287       .  A
O2387     Zr2396   2.442       .  S
O2387      C2389   1.287       .  A
O2388     Zr2400   2.426       .  S
O2388      C2389   1.286       .  A
O2390      C2392   1.287       .  A
O2391      C2392   1.287       .  A
Zr2393     O2394   2.434       .  S
Zr2393     O2395   2.434       .  S
Zr2393     O2403   2.368       .  S
O2394      H2414   0.990       .  S
O2394      H2419   0.990       .  S
O2395      H2415   0.990       .  S
Zr2396     O2397   2.435       .  S
Zr2396     O2398   2.435       .  S
Zr2396     O2401   2.371       .  S
Zr2396     O2406   2.370       .  S
O2398      H2412   0.990       .  S
O2398      H2422   0.990       .  S
Zr2399     O2402   2.382       .  S
Zr2399     O2404   2.384       .  S
Zr2400     O2401   2.383       .  S
Zr2400     O2406   2.382       .  S
O2401      H2409   0.966       .  S
O2404      H2408   0.965       .  S
O2405      H2410   0.965       .  S
O2423     Zr2435   2.444       .  S
O2423      C2425   1.288       .  A
O2424      C2425   1.286       .  A
O2426      C2428   1.288       .  A
O2427     Zr2462   2.422       .  S
O2427      C2428   1.285       .  A
O2429     Zr2438   2.443       .  S
O2429      C2431   1.288       .  A
O2430     Zr2461   2.427       .  S
O2430      C2431   1.286       .  A
O2432      C2434   1.287       .  A
O2433      C2434   1.285       .  A
Zr2435     O2436   2.434       .  S
Zr2435     O2467   2.368       .  S
O2436      H2479   0.990       .  S
Zr2438     O2439   2.436       .  S
Zr2438     O2441   2.373       .  S
Zr2438     O2466   2.368       .  S
O2439      H2483   0.990       .  S
O2441     Zr2461   2.381       .  S
O2442     Zr2462   2.386       .  S
O2442      H2469   0.966       .  S
O2443      C2445   1.288       .  A
O2444      C2445   1.286       .  A
O2446     Zr2458   2.442       .  S
O2446      C2448   1.288       .  A
O2447     Zr2461   2.426       .  S
O2447      C2448   1.286       .  A
O2449      C2451   1.287       .  A
O2450     Zr2462   2.423       .  S
O2450      C2451   1.285       .  A
O2452     Zr2455   2.441       .  S
O2452      C2454   1.287       .  A
O2453      C2454   1.287       .  A
Zr2455     O2456   2.436       .  S
Zr2455     O2457   2.434       .  S
Zr2455     O2467   2.369       .  S
O2456      H2481   0.990       .  S
Zr2458     O2459   2.434       .  S
Zr2458     O2460   2.437       .  S
Zr2458     O2464   2.375       .  S
Zr2458     O2466   2.367       .  S
O2459      H2475   0.990       .  S
O2460      H2484   0.990   1_565  S
Zr2461     O2464   2.382       .  S
Zr2461     O2466   2.386       .  S
Zr2462     O2463   2.385       .  S
Zr2462     O2468   2.383       .  S
O2463      H2471   0.966       .  S
O2466      H2470   0.966       .  S
O2467      H2472   0.966       .  S
C2485      C2486   1.406       .  A
C2485      C2490   1.396       .  A
C2485      H2491   1.083       .  S
C2486      C2487   1.406       .  A
C2487      C2488   1.400       .  A
C2487      H2492   1.083       .  S
C2488      C2489   1.407       .  A
C2488      H2493   1.083       .  S
C2489      C2490   1.406       .  A
C2490      H2494   1.083       .  S
C2495      C2496   1.405       .  A
C2495      C2500   1.395       .  A
C2495      H2501   1.083       .  S
C2496      C2497   1.407       .  A
C2497      C2498   1.400       .  A
C2497      H2502   1.083       .  S
C2498      C2499   1.406       .  A
C2498      H2503   1.083       .  S
C2499      C2500   1.406       .  A
C2500      H2504   1.083       .  S
C2505      C2506   1.406       .  A
C2505      C2510   1.397       .  A
C2505      H2511   1.083       .  S
C2506      C2507   1.406       .  A
C2507      C2508   1.399       .  A
C2507      H2512   1.083       .  S
C2508      C2509   1.407       .  A
C2508      H2513   1.083       .  S
C2509      C2510   1.406       .  A
C2510      H2514   1.083       .  S
C2515      C2516   1.407       .  A
C2515      C2520   1.399       .  A
C2515      H2521   1.083       .  S
C2516      C2517   1.407       .  A
C2517      C2518   1.401       .  A
C2517      H2522   1.083       .  S
C2518      C2519   1.407       .  A
C2518      H2523   1.083       .  S
C2519      C2520   1.407       .  A
C2520      H2524   1.083       .  S
C2525      C2526   1.407       .  A
C2525      C2530   1.399       .  A
C2525      H2531   1.083       .  S
C2526      C2527   1.407       .  A
C2527      C2528   1.400       .  A
C2527      H2532   1.083       .  S
C2528      C2529   1.407       .  A
C2528      H2533   1.083       .  S
C2529      C2530   1.407       .  A
C2530      H2534   1.083       .  S
C2535      C2536   1.407       .  A
C2535      C2540   1.401       .  A
C2535      H2541   1.083       .  S
C2536      C2537   1.406       .  A
C2537      C2538   1.398       .  A
C2537      H2542   1.083       .  S
C2538      C2539   1.407       .  A
C2538      H2543   1.083       .  S
C2539      C2540   1.407       .  A
C2540      H2544   1.083       .  S
