geometry optimzed in LAMMPS
_audit_creation_date              2020-12-01 
_audit_creation_method            'lammps2cif' 
_symmetry_space_group_name_H-M    'P1' 
_symmetry_Int_Tables_number       1 
_symmetry_cell_setting            triclinic 
loop_ 
_symmetry_equiv_pos_as_xyz 
  x,y,z 
_cell_length_a                    36.26065002 
_cell_length_b                    38.14000017010121 
_cell_length_c                    38.32953315312985 
_cell_angle_alpha                 94.56225415946501 
_cell_angle_beta                  88.62509270922652 
_cell_angle_gamma                 90.5787492351415 
loop_ 
_atom_site_label 
_atom_site_type_symbol 
_atom_site_fract_x 
_atom_site_fract_y 
_atom_site_fract_z 
_atom_site_charge 
C1          C  0.08046072  0.09676582  0.11137774     0.86300
C2          C  0.10527391  0.11933206  0.08812288    -0.53900
C3          C  0.12883578  0.14180535  0.10593584     0.09300
C4          C  0.12594457  0.13910599  0.14584527     0.20200
C5          C  0.10908702  0.07772525  0.13172944    -0.54600
C6          C  0.13317356  0.09872800  0.14968232     0.09400
C7          C  0.06066883  0.12382645  0.13760593    -0.54100
C8          C  0.08366979  0.14749038  0.15497962     0.09900
H9          H  0.10499655  0.11727581  0.05972249     0.14500
H10         H  0.14552826  0.15708753  0.16036603     0.00200
H11         H  0.11343649  0.04974424  0.12843219     0.14800
H12         H  0.03091860  0.12627566  0.13904361     0.14600
C13         C  0.07105548  0.18421095  0.17310916     0.29900
C14         C  0.07052932  0.25230741  0.20465538     0.29900
C15         C  0.08936386  0.21231813  0.15280413    -0.06300
C16         C  0.03143444  0.20104015  0.17944438    -0.07100
C17         C  0.08581063  0.18924400  0.20965599    -0.07000
C18         C  0.08834748  0.24691097  0.16822376    -0.06300
C19         C  0.03119427  0.23606607  0.19633158    -0.07100
C20         C  0.08601664  0.22358770  0.22553617    -0.07000
C21         C  0.08142134  0.26739312  0.14105466    -0.32400
N22         N  0.08076097  0.24768717  0.11035995     0.14100
C23         C  0.08447175  0.21425171  0.11756367    -0.32400
H24         H  0.07716162  0.19233127  0.09945833     0.16100
C25         C  0.49460643  0.24653644  0.19849336    -0.31400
N26         N  0.47294399  0.22019156  0.18342616     0.12800
C27         C  0.49495561  0.19267056  0.17160710    -0.31400
C28         C  0.07933787  0.22048201  0.26073573    -0.31600
N29         N  0.07607993  0.18641664  0.26713079     0.13400
H30         H  0.07230686  0.24196660  0.27972874     0.16000
C31         C  0.07747270  0.16778590  0.23594288    -0.31700
H32         H  0.06677929  0.14143737  0.23227146     0.16000
H33         H  0.48504480  0.16834000  0.15854101     0.16000
H34         H  0.06974828  0.29325097  0.14418024     0.16100
H35         H  0.48456392  0.27173496  0.20951110     0.16000
C36         C  0.08791404  0.33845485  0.26912618     0.86300
C37         C  0.11110801  0.31227136  0.28719489    -0.53900
C38         C  0.13256821  0.29103350  0.26575384     0.09300
C39         C  0.12673106  0.29610567  0.22660024     0.20200
C40         C  0.11308293  0.35728697  0.24416317    -0.54600
C41         C  0.13413007  0.33651778  0.22246098     0.09400
C42         C  0.06346881  0.31226647  0.24516206    -0.54100
C43         C  0.08382394  0.28900404  0.22265336     0.09900
H44         H  0.11025074  0.31037194  0.31535184     0.14500
H45         H  0.14439010  0.27837865  0.20911500     0.00200
H46         H  0.11596533  0.38566276  0.24576016     0.14800
H47         H  0.03405029  0.30875817  0.24934208     0.14600
C48         C  0.22629015  0.07183915  0.20723823     0.29900
C49         C  0.16612249  0.08367010  0.16846061     0.29900
C50         C  0.23383698  0.08813472  0.17298719    -0.06300
C51         C  0.20415651  0.03851003  0.19596844    -0.07100
C52         C  0.19621076  0.09434938  0.22555053    -0.07000
C53         C  0.20408449  0.09389885  0.15281477    -0.06300
C54         C  0.17261401  0.04362339  0.17587540    -0.07100
C55         C  0.16594796  0.10110458  0.20570645    -0.07000
C56         C  0.21918949  0.10458322  0.12171617    -0.32400
N57         N  0.25619083  0.11075645  0.12519007     0.14100
C58         C  0.26534542  0.09704369  0.15517004    -0.32400
H59         H  0.29282497  0.09145938  0.16278743     0.16100
C60         C  0.15665276  0.00987810  0.17052320    -0.31400
N61         N  0.17672135  0.48635495  0.18746466     0.12800
C62         C  0.20551491  0.00383232  0.20278000    -0.31400
C63         C  0.13663221  0.10556414  0.22904186    -0.31600
N64         N  0.14794325  0.10317663  0.26205100     0.13400
H65         H  0.10846888  0.10469263  0.22174516     0.16000
C66         C  0.18361462  0.09391699  0.25965681    -0.31700
H67         H  0.19840872  0.08332105  0.28045706     0.16000
H68         H  0.22652485  0.49137922  0.21683581     0.16000
H69         H  0.20445366  0.10582099  0.09778123     0.16100
H70         H  0.13299529  0.50257898  0.15484361     0.16000
C71         C  0.33223282  0.13887515  0.06143805     0.86300
C72         C  0.34899459  0.16622503  0.08892721    -0.53900
C73         C  0.32451586  0.18259471  0.11206366     0.09300
C74         C  0.28310188  0.17138935  0.10287682     0.20200
C75         C  0.30756363  0.11418290  0.08233523    -0.54600
C76         C  0.28140642  0.13044899  0.10354210     0.09400
C77         C  0.30283918  0.15933792  0.04197700    -0.54100
C78         C  0.27686510  0.17692601  0.06303846     0.09900
H79         H  0.37849639  0.17005920  0.09135954     0.14500
H80         H  0.26274842  0.18506166  0.12105990     0.00200
H81         H  0.31021616  0.08574696  0.08002626     0.14800
H82         H  0.29942096  0.15665605  0.01412745     0.14600
C83         C  0.09352463  0.13443980  0.34500913     0.86300
C84         C  0.07078475  0.15717389  0.32166525    -0.53900
C85         C  0.09139139  0.17231586  0.29690295     0.09300
C86         C  0.13189645  0.16231267  0.29597943     0.20200
C87         C  0.11185091  0.10740728  0.31756031    -0.54600
C88         C  0.13160501  0.12231898  0.29213340     0.09400
C89         C  0.12586946  0.15892322  0.35885595    -0.54100
C90         C  0.14651080  0.17296223  0.33271083     0.09900
H91         H  0.04106986  0.15705522  0.32029767     0.14500
H92         H  0.14762379  0.17366575  0.27424203     0.00200
H93         H  0.10819902  0.07909814  0.31740184     0.14800
H94         H  0.13179891  0.16380221  0.38635650     0.14600
C95         C  0.33500967  0.23901535  0.21359872     0.29900
C96         C  0.33597229  0.20380810  0.14761860     0.29900
C97         C  0.32012478  0.25892935  0.18395471    -0.06300
C98         C  0.37463442  0.23015273  0.19790914    -0.07100
C99         C  0.31763082  0.20258536  0.21054887    -0.07000
C100        C  0.32109711  0.24132694  0.15031792    -0.06300
C101        C  0.37543026  0.21146099  0.16390492    -0.07100
C102        C  0.31791785  0.18489842  0.17715337    -0.07000
C103        C  0.33208945  0.26681433  0.12814892    -0.32400
N104        N  0.33461928  0.29908608  0.14520518     0.14100
C105        C  0.32962899  0.29351857  0.17928923    -0.32400
H106        H  0.33896894  0.31201261  0.20007312     0.16100
C107        C  0.41264879  0.20589560  0.15535039    -0.31400
N108        N  0.43372152  0.22075601  0.18191071     0.12800
C109        C  0.41090674  0.23558202  0.20763248    -0.31400
C110        C  0.32454297  0.15003839  0.18205758    -0.31600
N111        N  0.32742482  0.14517185  0.21623768     0.13400
H112        H  0.33372840  0.13095708  0.16150655     0.16000
C113        C  0.32461825  0.17726477  0.23328478    -0.31700
H114        H  0.33534132  0.18303749  0.25916232     0.16000
H115        H  0.42022438  0.24874598  0.23188500     0.16000
H116        H  0.34405192  0.26127880  0.10223015     0.16100
H117        H  0.42366131  0.19245903  0.13152866     0.16000
C118        C  0.30714666  0.37545379  0.09181100     0.86300
C119        C  0.29009197  0.34578395  0.06769262    -0.53900
C120        C  0.27390970  0.32043703  0.08513601     0.09300
C121        C  0.27608321  0.32565421  0.12469157     0.20200
C122        C  0.27640024  0.38832009  0.11813084    -0.54600
C123        C  0.26007112  0.36214107  0.13532912     0.09400
C124        C  0.33447106  0.35417749  0.11330501    -0.54100
C125        C  0.31710638  0.32830794  0.13088120     0.09900
H126        H  0.29182997  0.34406102  0.03927413     0.14500
H127        H  0.26246283  0.30384476  0.13784986     0.00200
H128        H  0.26808843  0.41530645  0.12117556     0.14800
H129        H  0.36426465  0.35581466  0.11119759     0.14600
C130        C  0.31259765  0.06208313  0.26476660     0.86300
C131        C  0.29364412  0.08643736  0.29390236    -0.53900
C132        C  0.27348651  0.11198969  0.28164107     0.09300
C133        C  0.27354148  0.11168394  0.24205800     0.20200
C134        C  0.28165857  0.04844481  0.23993362    -0.54600
C135        C  0.26049868  0.07461284  0.22907156     0.09400
C136        C  0.33532730  0.08879478  0.24369804    -0.54100
C137        C  0.31394580  0.11422988  0.23150850     0.09900
H138        H  0.29753254  0.08486711  0.32175682     0.14500
H139        H  0.25712769  0.13346360  0.23281404     0.00200
H140        H  0.27717859  0.02086564  0.23233543     0.14800
H141        H  0.36501045  0.09040468  0.24147605     0.14600
C142        C  0.22623134  0.36414146  0.15946100     0.29900
C143        C  0.16564564  0.35195898  0.20057522     0.29900
C144        C  0.23327916  0.34822769  0.19386354    -0.06300
C145        C  0.20384361  0.39730940  0.17118192    -0.07100
C146        C  0.19642400  0.34078055  0.14262187    -0.07000
C147        C  0.20300575  0.34240644  0.21475092    -0.06300
C148        C  0.17226977  0.39193648  0.19269451    -0.07100
C149        C  0.16552527  0.33427467  0.16349820    -0.07000
C150        C  0.21605189  0.33012002  0.24495126    -0.32400
N151        N  0.25273132  0.32347468  0.24069199     0.14100
C152        C  0.26366909  0.33797007  0.21096735    -0.32400
H153        H  0.29157494  0.34376506  0.20347410     0.16100
C154        C  0.15637929  0.42543226  0.19878245    -0.31400
N155        N  0.17665336  0.44921823  0.18112822     0.12800
C156        C  0.20547210  0.43217064  0.16467345    -0.31400
C157        C  0.13649779  0.33090621  0.14101232    -0.31600
N158        N  0.14861557  0.33268778  0.10763026     0.13400
H159        H  0.10816154  0.33389029  0.14908488     0.16000
C160        C  0.18455641  0.34107249  0.10891817    -0.31700
H161        H  0.20016491  0.35109785  0.08748964     0.16000
H162        H  0.22675229  0.44525560  0.15062492     0.16000
H163        H  0.20007046  0.32739265  0.26861326     0.16100
H164        H  0.13262526  0.43231431  0.21540122     0.16000
C165        C  0.09398321  0.29652997  0.02927895     0.86300
C166        C  0.07369064  0.27134616  0.05334823    -0.53900
C167        C  0.09495859  0.26046886  0.07881362     0.09300
C168        C  0.13478710  0.27195061  0.07649380     0.20200
C169        C  0.11311998  0.32490041  0.05390399    -0.54600
C170        C  0.13336986  0.31179900  0.07876490     0.09400
C171        C  0.12662524  0.27276469  0.01361660    -0.54100
C172        C  0.14808110  0.25999232  0.03887014     0.09900
H173        H  0.04438962  0.26529285  0.05234993     0.14500
H174        H  0.15120566  0.26198751  0.09769520     0.00200
H175        H  0.10893641  0.35300138  0.05313795     0.14800
H176        H  0.13097643  0.26372054  0.98662699     0.14600
C177        C  0.32739356  0.29957679  0.30292165     0.86300
C178        C  0.34664082  0.27639251  0.27274639    -0.53900
C179        C  0.32335967  0.25841338  0.25013776     0.09300
C180        C  0.28163535  0.26420636  0.26192621     0.20200
C181        C  0.29952136  0.32252004  0.28517484    -0.54600
C182        C  0.27633600  0.30485049  0.26308195     0.09400
C183        C  0.30145037  0.27468237  0.32239311    -0.54100
C184        C  0.27678018  0.25583288  0.30183609     0.09900
H185        H  0.37624966  0.27668373  0.26844050     0.14500
H186        H  0.26286234  0.24910257  0.24386097     0.00200
H187        H  0.29860705  0.35102444  0.28909681     0.14800
H188        H  0.29919566  0.27546749  0.35048306     0.14600
C189        C  0.18215479  0.23613694  0.03518026     0.29900
C190        C  0.24316730  0.19733098  0.04909075     0.29900
C191        C  0.17456440  0.20013270  0.04866996    -0.06300
C192        C  0.20652436  0.22634047  0.00321720    -0.07100
C193        C  0.21100753  0.25372329  0.05910691    -0.07000
C194        C  0.20492150  0.18261552  0.05980183    -0.06300
C195        C  0.23787837  0.20558114  0.00878791    -0.07100
C196        C  0.24155648  0.23393001  0.06676902    -0.07000
C197        C  0.19052310  0.16725810  0.08884583    -0.32400
N198        N  0.15318612  0.16520114  0.08780280     0.14100
C199        C  0.14329956  0.18566015  0.06249330    -0.32400
H200        H  0.11550216  0.19096368  0.05518689     0.16100
C201        C  0.25503635  0.20121114  0.47525109    -0.31400
N202        N  0.23610938  0.21971360  0.45204509     0.12800
C203        C  0.20695785  0.23515189  0.46945005    -0.31400
C204        C  0.27013321  0.25709862  0.07153897    -0.31600
N205        N  0.25816834  0.28979568  0.06826217     0.13400
H206        H  0.29866551  0.24977763  0.07067952     0.16000
C207        C  0.22301154  0.28774947  0.05865218    -0.31700
H208        H  0.20842987  0.30868566  0.04773775     0.16000
H209        H  0.18611127  0.24989058  0.45739078     0.16000
H210        H  0.20560144  0.16360667  0.11182946     0.16100
H211        H  0.27866791  0.18500630  0.46793006     0.16000
C212        C  0.18190166  0.19569005  0.33428212     0.29900
C213        C  0.24376338  0.23417305  0.31739476     0.29900
C214        C  0.17544347  0.23084614  0.31945186    -0.06300
C215        C  0.20567944  0.20685317  0.36542517    -0.07100
C216        C  0.21112280  0.17709350  0.31001570    -0.07000
C217        C  0.20608205  0.24795600  0.30702032    -0.06300
C218        C  0.23757303  0.22731973  0.35821689    -0.07100
C219        C  0.24258375  0.19673947  0.30149159    -0.07000
C220        C  0.19272200  0.26390414  0.27868163    -0.32400
N221        N  0.15543499  0.26512003  0.28021860     0.14100
C222        C  0.14487186  0.24507216  0.30625014    -0.32400
H223        H  0.11711525  0.24110916  0.31577818     0.16100
C224        C  0.25514633  0.23144649  0.39081810    -0.31400
N225        N  0.23574876  0.21337018  0.41508653     0.12800
C226        C  0.20593113  0.19836889  0.39929460    -0.31400
C227        C  0.27121417  0.17361986  0.29936235    -0.31600
N228        N  0.25881360  0.14084010  0.30308817     0.13400
H229        H  0.29988686  0.18102153  0.30188550     0.16000
C230        C  0.22278804  0.14316241  0.31170198    -0.31700
H231        H  0.20711723  0.12256007  0.32313046     0.16000
H232        H  0.18488802  0.18372039  0.41248151     0.16000
H233        H  0.20845257  0.26982382  0.25611946     0.16100
H234        H  0.27974457  0.24674425  0.39675503     0.16000
O235        O  0.49584465  0.98364832  0.00603237    -0.80300
O236        O  0.41935516  0.98513172  0.36676544    -0.80300
O237        O  0.00667679  0.01830897  0.43385211    -0.80300
O238        O  0.42420744  0.02766195  0.44924164    -0.80300
O239        O  0.49429532  0.00300261  0.37925378    -0.80400
O240        O  0.42482418  0.00307175  0.99820025    -0.80300
O241        O  0.37269896  0.00413726  0.40159266    -0.80300
O242        O  0.04045165  0.49050892  0.47892924    -0.80300
C243        C  0.02293944  0.99647802  0.50715746     1.09400
C244        C  0.38809671  0.00080374  0.37139154     1.09300
C245        C  0.00709641  0.02551456  0.40262783     1.09400
C246        C  0.41940122  0.03038544  0.48218837     1.09300
O247        O  0.40615469  0.42844809  0.97540983    -0.80300
O248        O  0.50376622  0.42534508  0.38752066    -0.80400
O249        O  0.02579813  0.42173475  0.45523120    -0.80300
O250        O  0.38766361  0.43532159  0.40444818    -0.80300
O251        O  0.43686274  0.41288798  0.37866114    -0.80300
O252        O  0.47487577  0.41059506  0.98500816    -0.80300
O253        O  0.37303635  0.47281322  0.46598983    -0.80200
O254        O  0.04690758  0.46134736  0.39838338    -0.80300
Co255      Co  0.44930227  0.45601483  0.48904276     1.51500
Co256      Co  0.46343300  0.45715736  0.38262207     1.51700
Co257      Co  0.01311403  0.46919894  0.44004682     1.51600
Co258      Co  0.40932728  0.48183412  0.42581033     1.51500
O259        O  0.45779929  0.46189303  0.43728412    -1.42200
C260        C  0.37767887  0.44581838  0.48266613     1.07700
C261        C  0.03455759  0.43652769  0.37901902     1.09400
C262        C  0.00567337  0.40095241  0.47198119     1.09400
C263        C  0.40340199  0.41054295  0.38598062     1.09300
C264        C  0.36789764  0.35427588  0.30938170    -0.02000
C265        C  0.35432329  0.32377924  0.32444955     0.07700
C266        C  0.36340868  0.31966084  0.35978891    -0.02100
C267        C  0.37741126  0.34870749  0.38108941    -0.02100
C268        C  0.38303262  0.38145002  0.36707333     0.07800
C269        C  0.37911651  0.38360155  0.33083897    -0.02300
Br270      Br  0.38957607  0.42690391  0.30964538    -0.00900
Br271      Br  0.37252003  0.35633696  0.25900668    -0.00900
Br272      Br  0.39121885  0.34340462  0.42863940    -0.00900
Br273      Br  0.36693474  0.27330718  0.37626347    -0.00900
C274        C  0.04723830  0.34883398  0.95880766    -0.02000
C275        C  0.01880767  0.36528964  0.97944162     0.07700
C276        C  0.00897356  0.35123843  0.01107834    -0.02100
C277        C  0.03466608  0.33167105  0.02757946    -0.02100
C278        C  0.06580845  0.31616601  0.00837888     0.07800
C279        C  0.07055374  0.32401777  0.97268639    -0.02300
Br280      Br  0.11036427  0.30618563  0.94236873    -0.00900
Br281      Br  0.05036844  0.35616220  0.40974140    -0.00900
Br282      Br  0.02851848  0.33423010  0.07842732    -0.00900
Br283      Br  0.95991197  0.35661564  0.03194951    -0.00900
C284        C  0.38940981  0.02341637  0.31130698    -0.02000
C285        C  0.36914063  0.01138182  0.34023038     0.07700
C286        C  0.33116930  0.00382175  0.33652870    -0.02100
C287        C  0.31262715  0.01493593  0.30770941    -0.02100
C288        C  0.33232086  0.03318644  0.28217053     0.07800
C289        C  0.37095542  0.03090563  0.28105428    -0.02300
Br290      Br  0.39752696  0.02839648  0.23669017    -0.00900
Br291      Br  0.44193865  0.03183172  0.31244012    -0.00900
Br292      Br  0.25978355  0.50753534  0.30541729    -0.00900
Br293      Br  0.30437463  0.47695480  0.36978728    -0.00900
C294        C  0.30045265  0.41452751  0.04076686    -0.02000
C295        C  0.32118449  0.40479236  0.06967710     0.07700
C296        C  0.35608045  0.42023083  0.07463675    -0.02100
C297        C  0.37423208  0.43512510  0.04660567    -0.02100
C298        C  0.35610784  0.43784538  0.01441485     0.07800
C299        C  0.31851746  0.42922364  0.01236702    -0.02300
Br300      Br  0.29320544  0.43290730  0.46913304    -0.00900
Br301      Br  0.24751345  0.40756978  0.03922337    -0.00900
Br302      Br  0.42475469  0.44916404  0.05327672    -0.00900
Br303      Br  0.37651962  0.42647550  0.12092731    -0.00900
C304        C  0.08870080  0.08668053  0.38750549    -0.02000
C305        C  0.07151586  0.11470167  0.37245586     0.07700
C306        C  0.03281750  0.11809619  0.37798192    -0.02100
C307        C  0.01140234  0.08866026  0.38661090    -0.02100
C308        C  0.02871568  0.05717398  0.39359563     0.07800
C309        C  0.06751295  0.05799791  0.39772149    -0.02300
Br310      Br  0.09300564  0.52078823  0.41789659    -0.00900
Br311      Br  0.14158360  0.08693048  0.39345043    -0.00900
Br312      Br  0.45887087  0.09251742  0.39171181    -0.00900
Br313      Br  0.01056773  0.16410431  0.38345493    -0.00900
C314        C  0.40769562  0.06870360  0.03783312    -0.02000
C315        C  0.40501476  0.06333736  0.00084606     0.07700
C316        C  0.38485663  0.08864905  0.98390969    -0.02100
C317        C  0.36783337  0.11737404  0.00339110    -0.02100
C318        C  0.36256439  0.11710205  0.04010345     0.07800
C319        C  0.38553583  0.09402655  0.05729791    -0.02300
Br320      Br  0.38777739  0.09646956  0.10799317    -0.00900
Br321      Br  0.44190790  0.54254635  0.06335363    -0.00900
Br322      Br  0.36194655  0.15994784  0.97999360    -0.00900
Br323      Br  0.37547726  0.08396492  0.43478549    -0.00900
C324        C  0.04162122  0.38608055  0.29235604    -0.02000
C325        C  0.07441933  0.36728179  0.29654771     0.07700
C326        C  0.10004943  0.38241789  0.32214371    -0.02100
C327        C  0.08819547  0.40755459  0.34852954    -0.02100
C328        C  0.05272183  0.42078360  0.34737992     0.07800
C329        C  0.03134982  0.41317093  0.31755022    -0.02300
Br330      Br  0.48956281  0.44237660  0.31032049    -0.00900
Br331      Br  0.01269899  0.37896099  0.25080359    -0.00900
Br332      Br  0.11991861  0.42309338  0.38686019    -0.00900
Br333      Br  0.15280529  0.37324513  0.32078423    -0.00900
C334        C  0.04424539  0.01049793  0.06779438    -0.02000
C335        C  0.03709326  0.02170222  0.03461973     0.07700
C336        C  0.03462122  0.05807507  0.03040782    -0.02100
C337        C  0.04064333  0.08272045  0.05874714    -0.02100
C338        C  0.05479469  0.07170867  0.08987310     0.07800
C339        C  0.05129063  0.03552301  0.09584974    -0.02300
Br340      Br  0.04763239  0.02087749  0.14294308    -0.00900
Br341      Br  0.54545152  0.46085493  0.07438941    -0.00900
Br342      Br  0.02676465  0.13127166  0.05592925    -0.00900
Br343      Br  0.02345196  0.07544486  0.48624082    -0.00900
C344        C  0.08043922  0.09682055  0.61134485     0.86300
C345        C  0.10527331  0.11935391  0.58807862    -0.53900
C346        C  0.12884177  0.14182475  0.60588289     0.09300
C347        C  0.12594512  0.13914883  0.64580091     0.20200
C348        C  0.10904457  0.07776715  0.63170760    -0.54600
C349        C  0.13314258  0.09875815  0.64965465     0.09400
C350        C  0.06066568  0.12391719  0.63756423    -0.54100
C351        C  0.08367524  0.14758666  0.65494214     0.09900
H352        H  0.10500486  0.11728053  0.55967798     0.14500
H353        H  0.14554711  0.15711911  0.66031063     0.00200
H354        H  0.11336231  0.04977964  0.62843755     0.14800
H355        H  0.03091685  0.12637286  0.63900007     0.14600
C356        C  0.07106506  0.18433992  0.67311562     0.29900
C357        C  0.07043433  0.25253050  0.70479486     0.29900
C358        C  0.08939386  0.21247198  0.65288899    -0.06300
C359        C  0.03143856  0.20116602  0.67942885    -0.07100
C360        C  0.08577633  0.18937494  0.70966394    -0.07000
C361        C  0.08833096  0.24709901  0.66832807    -0.06300
C362        C  0.03114876  0.23619270  0.69636197    -0.07100
C363        C  0.08593429  0.22372645  0.72560034    -0.07000
C364        C  0.08144861  0.26751400  0.64108844    -0.32400
N365        N  0.08085130  0.24775840  0.61040708     0.14100
C366        C  0.08457986  0.21434660  0.61763751    -0.32400
H367        H  0.07731323  0.19240931  0.59953721     0.16100
C368        C  0.49460171  0.24654652  0.69843814    -0.31400
N369        N  0.47293604  0.22019125  0.68339623     0.12800
C370        C  0.49496250  0.19267997  0.67156234    -0.31400
C371        C  0.07924196  0.22053158  0.76077565    -0.31600
N372        N  0.07599825  0.18644392  0.76710079     0.13400
H373        H  0.07218886  0.24198061  0.77980346     0.16000
C374        C  0.07743736  0.16785934  0.73589370    -0.31700
H375        H  0.06676498  0.14151198  0.73216826     0.16000
H376        H  0.48505153  0.16833733  0.65852258     0.16000
H377        H  0.06975045  0.29336134  0.64415065     0.16100
H378        H  0.48455438  0.27173558  0.70947820     0.16000
C379        C  0.08784008  0.33905881  0.76978955     0.86300
C380        C  0.11113448  0.31276561  0.78764336    -0.53900
C381        C  0.13242355  0.29141088  0.76606761     0.09300
C382        C  0.12646834  0.29648896  0.72694701     0.20200
C383        C  0.11304132  0.35773264  0.74464720    -0.54600
C384        C  0.13392595  0.33686269  0.72274733     0.09400
C385        C  0.06334059  0.31271145  0.74571699    -0.54100
C386        C  0.08361535  0.28935197  0.72305376     0.09900
H387        H  0.11040335  0.31081657  0.81579014     0.14500
H388        H  0.14407984  0.27874164  0.70943475     0.00200
H389        H  0.11605917  0.38609218  0.74627577     0.14800
H390        H  0.03391367  0.30925469  0.74988533     0.14600
C391        C  0.22622483  0.07182853  0.70723857     0.29900
C392        C  0.16607083  0.08367022  0.66844555     0.29900
C393        C  0.23378297  0.08811988  0.67298930    -0.06300
C394        C  0.20409324  0.03850105  0.69596080    -0.07100
C395        C  0.19614280  0.09433713  0.72554311    -0.07000
C396        C  0.20403559  0.09388621  0.65281234    -0.06300
C397        C  0.17255741  0.04361832  0.67585642    -0.07100
C398        C  0.16588904  0.10109948  0.70569269    -0.07000
C399        C  0.21913640  0.10458354  0.62172437    -0.32400
N400        N  0.25612936  0.11077413  0.62521398     0.14100
C401        C  0.26529072  0.09704538  0.65518386    -0.32400
H402        H  0.29277040  0.09147117  0.66280471     0.16100
C403        C  0.15660721  0.00987021  0.67048435    -0.31400
N404        N  0.17670738  0.48637911  0.68743594     0.12800
C405        C  0.20545617  0.00382095  0.70276021    -0.31400
C406        C  0.13656855  0.10556578  0.72902310    -0.31600
N407        N  0.14787209  0.10317605  0.76203592     0.13400
H408        H  0.10841247  0.10470542  0.72172380     0.16000
C409        C  0.18354032  0.09390625  0.75964755    -0.31700
H410        H  0.19833108  0.08331497  0.78045287     0.16000
H411        H  0.22648913  0.49137641  0.71683869     0.16000
H412        H  0.20440218  0.10582923  0.59778913     0.16100
H413        H  0.13300509  0.50261720  0.65479781     0.16000
C414        C  0.33213049  0.13904217  0.56155248     0.86300
C415        C  0.34888854  0.16635755  0.58903025    -0.53900
C416        C  0.32441525  0.18266622  0.61216882     0.09300
C417        C  0.28300323  0.17146174  0.60296807     0.20200
C418        C  0.30747868  0.11428550  0.58238239    -0.54600
C419        C  0.28132255  0.13051295  0.60359788     0.09400
C420        C  0.30277852  0.15946244  0.54206703    -0.54100
C421        C  0.27680819  0.17701567  0.56311744     0.09900
H422        H  0.37838924  0.17020740  0.59145831     0.14500
H423        H  0.26264313  0.18512359  0.62115059     0.00200
H424        H  0.31014536  0.08585045  0.58003010     0.14800
H425        H  0.29935842  0.15675593  0.51422089     0.14600
C426        C  0.09341862  0.13444898  0.84497436     0.86300
C427        C  0.07067772  0.15715634  0.82160621    -0.53900
C428        C  0.09129200  0.17229972  0.79685244     0.09300
C429        C  0.13179809  0.16231637  0.79594519     0.20200
C430        C  0.11178028  0.10741207  0.81755055    -0.54600
C431        C  0.13152972  0.12232147  0.79211651     0.09400
C432        C  0.12573787  0.15896080  0.85882372    -0.54100
C433        C  0.14638479  0.17299230  0.83267938     0.09900
H434        H  0.04096325  0.15704410  0.82023756     0.14500
H435        H  0.14752732  0.17367082  0.77420940     0.00200
H436        H  0.10814776  0.07910216  0.81740944     0.14800
H437        H  0.13164572  0.16386696  0.88632609     0.14600
C438        C  0.33498425  0.23902582  0.71366218     0.29900
C439        C  0.33591137  0.20383101  0.64770284     0.29900
C440        C  0.32009740  0.25894639  0.68402026    -0.06300
C441        C  0.37461447  0.23015574  0.69796251    -0.07100
C442        C  0.31760496  0.20259406  0.71062392    -0.07000
C443        C  0.32105269  0.24134331  0.65039366    -0.06300
C444        C  0.37538869  0.21146397  0.66396030    -0.07100
C445        C  0.31786912  0.18491444  0.67723227    -0.07000
C446        C  0.33203982  0.26681491  0.62820569    -0.32400
N447        N  0.33458037  0.29909207  0.64524741     0.14100
C448        C  0.32960267  0.29353438  0.67933754    -0.32400
H449        H  0.33893360  0.31203957  0.70011386     0.16100
C450        C  0.41260478  0.20588502  0.65538161    -0.31400
N451        N  0.43370416  0.22074041  0.68192465     0.12800
C452        C  0.41090286  0.23557773  0.70765890    -0.31400
C453        C  0.32448422  0.15005055  0.68212373    -0.31600
N454        N  0.32737788  0.14517171  0.71629889     0.13400
H455        H  0.33365110  0.13097404  0.66156676     0.16000
C456        C  0.32459742  0.17726457  0.73335262    -0.31700
H457        H  0.33533150  0.18302646  0.75922929     0.16000
H458        H  0.42023586  0.24875396  0.73190008     0.16000
H459        H  0.34400845  0.26126260  0.60229579     0.16100
H460        H  0.42359891  0.19244793  0.63155233     0.16000
C461        C  0.30717474  0.37549763  0.59185214     0.86300
C462        C  0.29014833  0.34584227  0.56770310    -0.53900
C463        C  0.27394398  0.32048345  0.58511226     0.09300
C464        C  0.27606498  0.32567042  0.62467665     0.20200
C465        C  0.27639504  0.38833793  0.61816182    -0.54600
C466        C  0.26003280  0.36214608  0.63533404     0.09400
C467        C  0.33447314  0.35420274  0.61336114    -0.54100
C468        C  0.31708533  0.32831993  0.63090815     0.09900
H469        H  0.29191731  0.34413982  0.53928578     0.14500
H470        H  0.26242956  0.30384935  0.63780431     0.00200
H471        H  0.26809746  0.41533053  0.62122560     0.14800
H472        H  0.36426793  0.35583229  0.61128091     0.14600
C473        C  0.31246809  0.06210307  0.76482903     0.86300
C474        C  0.29349869  0.08646617  0.79394507    -0.53900
C475        C  0.27336016  0.11201350  0.78165554     0.09300
C476        C  0.27345360  0.11169323  0.74206841     0.20200
C477        C  0.28155281  0.04845025  0.73998589    -0.54600
C478        C  0.26041889  0.07461418  0.72908542     0.09400
C479        C  0.33522670  0.08880250  0.74377388    -0.54100
C480        C  0.31386847  0.11423398  0.73155669     0.09900
H481        H  0.29736393  0.08490909  0.82180463     0.14500
H482        H  0.25705304  0.13346974  0.73280080     0.00200
H483        H  0.27706373  0.02086697  0.73241742     0.14800
H484        H  0.36491332  0.09041297  0.74159191     0.14600
C485        C  0.22616841  0.36414092  0.65948529     0.29900
C486        C  0.16551795  0.35208697  0.70067323     0.29900
C487        C  0.23318741  0.34822499  0.69388575    -0.06300
C488        C  0.20380935  0.39733097  0.67120376    -0.07100
C489        C  0.19633301  0.34079765  0.64267883    -0.07000
C490        C  0.20290494  0.34246579  0.71480724    -0.06300
C491        C  0.17223118  0.39200870  0.69273193    -0.07100
C492        C  0.16538941  0.33435546  0.66356476    -0.07000
C493        C  0.21598411  0.33020072  0.74501039    -0.32400
N494        N  0.25265697  0.32350340  0.74072304     0.14100
C495        C  0.26358506  0.33795475  0.71097170    -0.32400
H496        H  0.29146842  0.34372887  0.70346252     0.16100
C497        C  0.15634169  0.42549253  0.69877363    -0.31400
N498        N  0.17662524  0.44924765  0.68110036     0.12800
C499        C  0.20544503  0.43218321  0.66466382    -0.31400
C500        C  0.13640139  0.33101860  0.64101664    -0.31600
N501        N  0.14857571  0.33274371  0.60763207     0.13400
H502        H  0.10805914  0.33407855  0.64904599     0.16000
C503        C  0.18452533  0.34106529  0.60895517    -0.31700
H504        H  0.20017773  0.35105589  0.58753791     0.16000
H505        H  0.22672840  0.44525596  0.65060166     0.16000
H506        H  0.20002570  0.32754491  0.76870839     0.16100
H507        H  0.13257474  0.43238973  0.71536811     0.16000
C508        C  0.09400198  0.29645458  0.52927022     0.86300
C509        C  0.07374175  0.27128472  0.55335154    -0.53900
C510        C  0.09503026  0.26047344  0.57883094     0.09300
C511        C  0.13484673  0.27198577  0.57650072     0.20200
C512        C  0.11310969  0.32487914  0.55387535    -0.54600
C513        C  0.13337346  0.31182629  0.57875711     0.09400
C514        C  0.12669253  0.27274986  0.51362669    -0.54100
C515        C  0.14814776  0.26002740  0.53888061     0.09900
H516        H  0.04444126  0.26522381  0.55237023     0.14500
H517        H  0.15127985  0.26204976  0.59770626     0.00200
H518        H  0.10889155  0.35297232  0.55308525     0.14800
H519        H  0.13113722  0.26367944  0.48667346     0.14600
C520        C  0.32730998  0.29956740  0.80297452     0.86300
C521        C  0.34657038  0.27638233  0.77281172    -0.53900
C522        C  0.32329990  0.25842081  0.75018641     0.09300
C523        C  0.28155965  0.26422666  0.76194489     0.20200
C524        C  0.29945804  0.32252834  0.78521431    -0.54600
C525        C  0.27627299  0.30487203  0.76310545     0.09400
C526        C  0.30133906  0.27468154  0.82242374    -0.54100
C527        C  0.27667054  0.25585032  0.80184902     0.09900
H528        H  0.37618354  0.27665503  0.76852481     0.14500
H529        H  0.26277330  0.24914315  0.74387409     0.00200
H530        H  0.29855211  0.35103214  0.78914959     0.14800
H531        H  0.29905823  0.27546947  0.85051137     0.14600
C532        C  0.18220875  0.23618976  0.53516781     0.29900
C533        C  0.24317342  0.19739894  0.54911798     0.29900
C534        C  0.17459631  0.20018842  0.54865363    -0.06300
C535        C  0.20659285  0.22639058  0.50320651    -0.07100
C536        C  0.21105007  0.25378897  0.55909433    -0.07000
C537        C  0.20493632  0.18267725  0.55979830    -0.06300
C538        C  0.23793384  0.20562900  0.50880319    -0.07100
C539        C  0.24158279  0.23399781  0.56677687    -0.07000
C540        C  0.19053157  0.16727192  0.58880533    -0.32400
N541        N  0.15319921  0.16520435  0.58773677     0.14100
C542        C  0.14332243  0.18568819  0.56244151    -0.32400
H543        H  0.11552395  0.19100138  0.55513980     0.16100
C544        C  0.25494830  0.20117407  0.97522121    -0.31400
N545        N  0.23598777  0.21967374  0.95203420     0.12800
C546        C  0.20684701  0.23510075  0.96946419    -0.31400
C547        C  0.27017850  0.25715619  0.57150425    -0.31600
N548        N  0.25822924  0.28985269  0.56819629     0.13400
H549        H  0.29869890  0.24982609  0.57062738     0.16000
C550        C  0.22306811  0.28780899  0.55860345    -0.31700
H551        H  0.20848654  0.30874411  0.54768521     0.16000
H552        H  0.18598170  0.24983494  0.95742691     0.16000
H553        H  0.20559330  0.16360015  0.61178829     0.16100
H554        H  0.27858455  0.18497894  0.96788216     0.16000
C555        C  0.18176438  0.19572522  0.83425720     0.29900
C556        C  0.24363275  0.23420385  0.81738765     0.29900
C557        C  0.17530695  0.23087042  0.81940798    -0.06300
C558        C  0.20552676  0.20689432  0.86541117    -0.07100
C559        C  0.21099472  0.17712590  0.81000511    -0.07000
C560        C  0.20594632  0.24798658  0.80699957    -0.06300
C561        C  0.23742883  0.22735090  0.85821082    -0.07100
C562        C  0.24245768  0.19676997  0.80148770    -0.07000
C563        C  0.19256506  0.26404677  0.77873952    -0.32400
N564        N  0.15527102  0.26535015  0.78035671     0.14100
C565        C  0.14472345  0.24518461  0.80629994    -0.32400
H566        H  0.11697538  0.24123089  0.81585888     0.16100
C567        C  0.25501276  0.23144222  0.89081133    -0.31400
N568        N  0.23560803  0.21336199  0.91507217     0.12800
C569        C  0.20577742  0.19839055  0.89927650    -0.31400
C570        C  0.27108592  0.17364879  0.79935838    -0.31600
N571        N  0.25867980  0.14087133  0.80308271     0.13400
H572        H  0.29976101  0.18104749  0.80187518     0.16000
C573        C  0.22265450  0.14319434  0.81169322    -0.31700
H574        H  0.20697810  0.12259085  0.82311324     0.16000
H575        H  0.18473275  0.18373628  0.91245568     0.16000
H576        H  0.20828367  0.26994606  0.75616303     0.16100
H577        H  0.27962779  0.24671148  0.89675157     0.16000
O578        O  0.49099617  0.98369260  0.51150059    -0.80300
O579        O  0.41963699  0.98508639  0.86607432    -0.80300
O580        O  0.00667075  0.01829101  0.93381355    -0.80300
O581        O  0.42452539  0.02708232  0.94841890    -0.80300
O582        O  0.49528772  0.00195285  0.87949714    -0.80400
O583        O  0.42297356  0.00308629  0.49904620    -0.80300
O584        O  0.37297668  0.00368951  0.90135818    -0.80300
O585        O  0.04864820  0.48939042  0.97618636    -0.80300
C586        C  0.02292273  0.99648410  0.00714615     1.09400
C587        C  0.38832393  0.00068652  0.87110191     1.09300
C588        C  0.00704099  0.02548951  0.90258785     1.09400
C589        C  0.42021253  0.03013683  0.98140475     1.09300
O590        O  0.40611168  0.42852485  0.47537653    -0.80300
O591        O  0.50375163  0.42531117  0.88750852    -0.80400
O592        O  0.02318519  0.42230428  0.95655788    -0.80300
O593        O  0.38766322  0.43522934  0.90451563    -0.80300
O594        O  0.43687035  0.41280094  0.87874959    -0.80300
O595        O  0.47480510  0.41061958  0.48501038    -0.80300
O596        O  0.37305878  0.47272805  0.96602961    -0.80200
O597        O  0.04349552  0.46159808  0.90325533    -0.80300
Co598      Co  0.44932725  0.45597269  0.98905813     1.51500
Co599      Co  0.46338936  0.45709839  0.88264563     1.51700
Co600      Co  0.00962473  0.47169305  0.94688999     1.51600
Co601      Co  0.40931026  0.48176253  0.92584648     1.51500
O602        O  0.45780348  0.46186114  0.93730333    -1.42200
C603        C  0.37770970  0.44572685  0.98268683     1.07700
C604        C  0.03343520  0.43670277  0.88182451     1.09400
C605        C  0.00399435  0.40037312  0.97229655     1.09400
C606        C  0.40341367  0.41044223  0.88607355     1.09300
C607        C  0.36787118  0.35422368  0.80945964    -0.02000
C608        C  0.35424731  0.32374150  0.82452272     0.07700
C609        C  0.36332390  0.31959864  0.85986338    -0.02100
C610        C  0.37736807  0.34862108  0.88117046    -0.02100
C611        C  0.38305245  0.38135476  0.86715506     0.07800
C612        C  0.37916233  0.38351754  0.83092015    -0.02300
Br613      Br  0.38974935  0.42680046  0.80973123    -0.00900
Br614      Br  0.37244633  0.35632427  0.75908439    -0.00900
Br615      Br  0.39113556  0.34329626  0.92872901    -0.00900
Br616      Br  0.36675016  0.27324052  0.87635197    -0.00900
C617        C  0.04743202  0.34855971  0.45871204    -0.02000
C618        C  0.01960056  0.36569918  0.47952616     0.07700
C619        C  0.00948287  0.35184993  0.51119710    -0.02100
C620        C  0.03483520  0.33183847  0.52763592    -0.02100
C621        C  0.06581219  0.31602804  0.50837559     0.07800
C622        C  0.07040282  0.32351290  0.47256623    -0.02300
Br623      Br  0.10952930  0.30487223  0.44189901    -0.00900
Br624      Br  0.05033040  0.35658255  0.90994018    -0.00900
Br625      Br  0.02856103  0.33418380  0.57847216    -0.00900
Br626      Br  0.96040573  0.35769740  0.53191630    -0.00900
C627        C  0.38933693  0.02350521  0.81123661    -0.02000
C628        C  0.36915425  0.01148490  0.84019249     0.07700
C629        C  0.33113818  0.00395933  0.83662897    -0.02100
C630        C  0.31253044  0.01503134  0.80782938    -0.02100
C631        C  0.33218658  0.03322213  0.78222528     0.07800
C632        C  0.37081525  0.03093776  0.78103124    -0.02300
Br633      Br  0.39731810  0.02833602  0.73664142    -0.00900
Br634      Br  0.44188745  0.03189820  0.81224853    -0.00900
Br635      Br  0.25964079  0.50763734  0.80556136    -0.00900
Br636      Br  0.30418290  0.47705170  0.86995942    -0.00900
C637        C  0.30046300  0.41463121  0.54083580    -0.02000
C638        C  0.32122306  0.40484963  0.56971493     0.07700
C639        C  0.35614072  0.42025872  0.57463350    -0.02100
C640        C  0.37426179  0.43517708  0.54659371    -0.02100
C641        C  0.35609863  0.43795394  0.51442932     0.07800
C642        C  0.31849433  0.42937114  0.51243501    -0.02300
Br643      Br  0.29330872  0.43261853  0.96899965    -0.00900
Br644      Br  0.24752532  0.40765777  0.53932297    -0.00900
Br645      Br  0.42479225  0.44919775  0.55322902    -0.00900
Br646      Br  0.37665580  0.42644943  0.62089404    -0.00900
C647        C  0.08859753  0.08672975  0.88751225    -0.02000
C648        C  0.07140432  0.11471988  0.87242432     0.07700
C649        C  0.03269926  0.11807978  0.87790936    -0.02100
C650        C  0.01130187  0.08862836  0.88652880    -0.02100
C651        C  0.02863659  0.05715740  0.89353389     0.07800
C652        C  0.06743130  0.05801644  0.89768756    -0.02300
Br653      Br  0.09284225  0.52003591  0.91653390    -0.00900
Br654      Br  0.14145746  0.08708993  0.89360319    -0.00900
Br655      Br  0.45850875  0.09260138  0.89163397    -0.00900
Br656      Br  0.01042072  0.16407464  0.88337765    -0.00900
C657        C  0.40748076  0.06908074  0.53825091    -0.02000
C658        C  0.40464176  0.06365664  0.50135237     0.07700
C659        C  0.38468319  0.08894490  0.48422479    -0.02100
C660        C  0.36773347  0.11769348  0.50360927    -0.02100
C661        C  0.36246573  0.11741273  0.54031486     0.07800
C662        C  0.38539464  0.09440242  0.55761971    -0.02300
Br663      Br  0.38750262  0.09667931  0.60830568    -0.00900
Br664      Br  0.44187172  0.54253523  0.56335309    -0.00900
Br665      Br  0.36181973  0.16017712  0.48006992    -0.00900
Br666      Br  0.37551041  0.08372845  0.93454430    -0.00900
C667        C  0.04173659  0.38719786  0.79374083    -0.02000
C668        C  0.07442156  0.36816845  0.79764409     0.07700
C669        C  0.09991486  0.38329515  0.82340568    -0.02100
C670        C  0.08813135  0.40860247  0.85007669    -0.02100
C671        C  0.05280185  0.42243647  0.84927751     0.07800
C672        C  0.03161264  0.41455650  0.81904069    -0.02300
Br673      Br  0.48954901  0.44236046  0.81028210    -0.00900
Br674      Br  0.01263593  0.37966073  0.75226356    -0.00900
Br675      Br  0.11985625  0.42381394  0.88827426    -0.00900
Br676      Br  0.15256269  0.37385004  0.82170922    -0.00900
C677        C  0.04430824  0.01052811  0.56778931    -0.02000
C678        C  0.03712894  0.02170664  0.53461164     0.07700
C679        C  0.03467066  0.05807417  0.53036877    -0.02100
C680        C  0.04065745  0.08274138  0.55869446    -0.02100
C681        C  0.05476328  0.07175987  0.58984955     0.07800
C682        C  0.05127109  0.03557867  0.59584206    -0.02300
Br683      Br  0.04749416  0.02098275  0.64294560    -0.00900
Br684      Br  0.54578247  0.46088786  0.57438538    -0.00900
Br685      Br  0.02680742  0.13128918  0.55580713    -0.00900
Br686      Br  0.02323299  0.07546509  0.98632487    -0.00900
C687        C  0.08039941  0.59662562  0.11114685     0.86300
C688        C  0.10525352  0.61926951  0.08800172    -0.53900
C689        C  0.12877786  0.64173393  0.10586879     0.09300
C690        C  0.12582721  0.63900092  0.14576566     0.20200
C691        C  0.10898533  0.57761256  0.13161376    -0.54600
C692        C  0.13306509  0.59863192  0.14960758     0.09400
C693        C  0.06055798  0.62371644  0.13739507    -0.54100
C694        C  0.08355179  0.64738820  0.15486400     0.09900
H695        H  0.10502102  0.61728233  0.05960038     0.14500
H696        H  0.14539265  0.65697964  0.16031429     0.00200
H697        H  0.11328115  0.54962224  0.12840944     0.14800
H698        H  0.03080810  0.62617227  0.13878851     0.14600
C699        C  0.07100337  0.68414646  0.17307480     0.29900
C700        C  0.07053516  0.75227331  0.20465789     0.29900
C701        C  0.08934207  0.71226771  0.15279874    -0.06300
C702        C  0.03141208  0.70101994  0.17943112    -0.07100
C703        C  0.08578050  0.68918457  0.20963289    -0.07000
C704        C  0.08835316  0.74686546  0.16823559    -0.06300
C705        C  0.03119478  0.73604612  0.19632988    -0.07100
C706        C  0.08601358  0.72354009  0.22551868    -0.07000
C707        C  0.08144473  0.76736800  0.14108613    -0.32400
N708        N  0.08076871  0.74767263  0.11039147     0.14100
C709        C  0.08446105  0.71422859  0.11756577    -0.32400
H710        H  0.07714019  0.69232400  0.09944349     0.16100
C711        C  0.49460348  0.74654354  0.19848592    -0.31400
N712        N  0.47294980  0.72018999  0.18342063     0.12800
C713        C  0.49497830  0.69267507  0.17161158    -0.31400
C714        C  0.07935384  0.72045286  0.26072037    -0.31600
N715        N  0.07608236  0.68639361  0.26712443     0.13400
H716        H  0.07233772  0.74194540  0.27970879     0.16000
C717        C  0.07744997  0.66774772  0.23593983    -0.31700
H718        H  0.06674126  0.64140239  0.23228641     0.16000
H719        H  0.48507708  0.66834032  0.15854739     0.16000
H720        H  0.06978727  0.79323188  0.14422308     0.16100
H721        H  0.48455123  0.77174022  0.20949894     0.16000
C722        C  0.08792150  0.83845472  0.26912919     0.86300
C723        C  0.11111851  0.81227553  0.28719992    -0.53900
C724        C  0.13257616  0.79103376  0.26575953     0.09300
C725        C  0.12673789  0.79609920  0.22660545     0.20200
C726        C  0.11308847  0.85728459  0.24416448    -0.54600
C727        C  0.13413618  0.83651508  0.22246410     0.09400
C728        C  0.06347695  0.81225735  0.24516585    -0.54100
C729        C  0.08383158  0.78898390  0.22266088     0.09900
H730        H  0.11026351  0.81037975  0.31535738     0.14500
H731        H  0.14439929  0.77837226  0.20912267     0.00200
H732        H  0.11597164  0.88566042  0.24576016     0.14800
H733        H  0.03405699  0.80875683  0.24934322     0.14600
C734        C  0.22625578  0.57183218  0.20721952     0.29900
C735        C  0.16605345  0.58362639  0.16842673     0.29900
C736        C  0.23378618  0.58812205  0.17296978    -0.06300
C737        C  0.20412805  0.53849884  0.19595120    -0.07100
C738        C  0.19617297  0.59434107  0.22551961    -0.07000
C739        C  0.20402591  0.59386878  0.15278893    -0.06300
C740        C  0.17257853  0.54359652  0.17585685    -0.07100
C741        C  0.16589289  0.60107730  0.20567668    -0.07000
C742        C  0.21913970  0.60457304  0.12170373    -0.32400
N743        N  0.25613293  0.61077740  0.12520127     0.14100
C744        C  0.26529241  0.59705792  0.15517275    -0.32400
H745        H  0.29277250  0.59149191  0.16279842     0.16100
C746        C  0.15662635  0.50985229  0.17051165    -0.31400
N747        N  0.17673577  0.98636960  0.18747739     0.12800
C748        C  0.20549915  0.50382346  0.20276302    -0.31400
C749        C  0.13659442  0.60554469  0.22903032    -0.31600
N750        N  0.14792903  0.60317661  0.26203748     0.13400
H751        H  0.10842471  0.60466076  0.22174868     0.16000
C752        C  0.18360063  0.59392580  0.25963196    -0.31700
H753        H  0.19840868  0.58334184  0.28042934     0.16000
H754        H  0.22653549  0.99138289  0.21685483     0.16000
H755        H  0.20441549  0.60580998  0.09776203     0.16100
H756        H  0.13302769  0.00261218  0.15484552     0.16000
C757        C  0.33213773  0.63903650  0.06153298     0.86300
C758        C  0.34889387  0.66637072  0.08898813    -0.53900
C759        C  0.32442301  0.68267660  0.11212716     0.09300
C760        C  0.28300591  0.67145538  0.10294565     0.20200
C761        C  0.30750244  0.61428312  0.08238418    -0.54600
C762        C  0.28133533  0.63051096  0.10358840     0.09400
C763        C  0.30276579  0.65944155  0.04204299    -0.54100
C764        C  0.27678509  0.67698731  0.06309806     0.09900
H765        H  0.37839429  0.67023399  0.09140710     0.14500
H766        H  0.26264382  0.68511435  0.12112900     0.00200
H767        H  0.31018250  0.58584932  0.08004759     0.14800
H768        H  0.29936051  0.65674725  0.01419331     0.14600
C769        C  0.09353298  0.63443369  0.34501084     0.86300
C770        C  0.07079080  0.65716835  0.32166916    -0.53900
C771        C  0.09139530  0.67230705  0.29690273     0.09300
C772        C  0.13190018  0.66230832  0.29597902     0.20200
C773        C  0.11185650  0.60740236  0.31755863    -0.54600
C774        C  0.13160511  0.62231574  0.29212875     0.09400
C775        C  0.12587808  0.65891643  0.35885640    -0.54100
C776        C  0.14651658  0.67295714  0.33271088     0.09900
H777        H  0.04107550  0.65704935  0.32030466     0.14500
H778        H  0.14762593  0.67366263  0.27424132     0.00200
H779        H  0.10820272  0.57909326  0.31739774     0.14800
H780        H  0.13180964  0.66379394  0.38635661     0.14600
C781        C  0.33501491  0.73902253  0.21361635     0.29900
C782        C  0.33593447  0.70383818  0.14765578     0.29900
C783        C  0.32012408  0.75894824  0.18398064    -0.06300
C784        C  0.37463600  0.73015625  0.19791781    -0.07100
C785        C  0.31763065  0.70259285  0.21057456    -0.07000
C786        C  0.32107663  0.74134907  0.15035107    -0.06300
C787        C  0.37541581  0.71147043  0.16391393    -0.07100
C788        C  0.31789555  0.68491694  0.17718159    -0.07000
C789        C  0.33207242  0.76681984  0.12816702    -0.32400
N790        N  0.33462183  0.79909217  0.14521360     0.14100
C791        C  0.32964115  0.79353244  0.17930169    -0.32400
H792        H  0.33899105  0.81202910  0.20007904     0.16100
C793        C  0.41263798  0.70589318  0.15535190    -0.31400
N794        N  0.43372290  0.72074535  0.18191018     0.12800
C795        C  0.41091239  0.73557542  0.20763418    -0.31400
C796        C  0.32451870  0.65005270  0.18206691    -0.31600
N797        N  0.32741849  0.64517058  0.21624055     0.13400
H798        H  0.33367731  0.63097622  0.16150590     0.16000
C799        C  0.32462723  0.67726096  0.23329787    -0.31700
H800        H  0.33536446  0.68302381  0.25917285     0.16000
H801        H  0.42023522  0.74873782  0.23188557     0.16000
H802        H  0.34402706  0.76127070  0.10224691     0.16100
H803        H  0.42364387  0.69245550  0.13152809     0.16000
C804        C  0.30717438  0.87547335  0.09183129     0.86300
C805        C  0.29011993  0.84580789  0.06769659    -0.53900
C806        C  0.27392290  0.82045531  0.08512831     0.09300
C807        C  0.27609091  0.82566209  0.12468564     0.20200
C808        C  0.27641864  0.88832990  0.11814661    -0.54600
C809        C  0.26008007  0.86214706  0.13533166     0.09400
C810        C  0.33448698  0.85418945  0.11332391    -0.54100
C811        C  0.31711404  0.82831326  0.13088473     0.09900
H812        H  0.29186454  0.84409703  0.03927874     0.14500
H813        H  0.26246638  0.80385027  0.13783697     0.00200
H814        H  0.26811009  0.91531767  0.12120133     0.14800
H815        H  0.36428063  0.85582559  0.11122642     0.14600
C816        C  0.31258566  0.56207362  0.26475484     0.86300
C817        C  0.29363625  0.58642866  0.29389086    -0.53900
C818        C  0.27347841  0.61198148  0.28163187     0.09300
C819        C  0.27352770  0.61167702  0.24204768     0.20200
C820        C  0.28164045  0.54843884  0.23992174    -0.54600
C821        C  0.26047699  0.57460752  0.22905731     0.09400
C822        C  0.33531559  0.58878493  0.24368712    -0.54100
C823        C  0.31393510  0.61422315  0.23150022     0.09900
H824        H  0.29752907  0.58486023  0.32174495     0.14500
H825        H  0.25711432  0.63345821  0.23280664     0.00200
H826        H  0.27716000  0.52085956  0.23232561     0.14800
H827        H  0.36499902  0.59039341  0.24146654     0.14600
C828        C  0.22623980  0.86414724  0.15946578     0.29900
C829        C  0.16565415  0.85196304  0.20058232     0.29900
C830        C  0.23328764  0.84822988  0.19386687    -0.06300
C831        C  0.20385274  0.89731682  0.17119008    -0.07100
C832        C  0.19643076  0.84078785  0.14262788    -0.07000
C833        C  0.20301434  0.84240820  0.21475488    -0.06300
C834        C  0.17227911  0.89194343  0.19270327    -0.07100
C835        C  0.16553306  0.83428238  0.16350622    -0.07000
C836        C  0.21605994  0.83011880  0.24495355    -0.32400
N837        N  0.25273878  0.82347180  0.24069318     0.14100
C838        C  0.26367687  0.83796944  0.21096971    -0.32400
H839        H  0.29158332  0.84376748  0.20347833     0.16100
C840        C  0.15638989  0.92544179  0.19879208    -0.31400
N841        N  0.17666284  0.94923039  0.18113752     0.12800
C842        C  0.20548077  0.93217986  0.16468271    -0.31400
C843        C  0.13650300  0.83091931  0.14102563    -0.31600
N844        N  0.14861653  0.83270208  0.10764402     0.13400
H845        H  0.10816620  0.83390177  0.14910070     0.16000
C846        C  0.18455899  0.84108205  0.10892635    -0.31700
H847        H  0.20016511  0.85110692  0.08749631     0.16000
H848        H  0.22676155  0.94526416  0.15063311     0.16000
H849        H  0.20007881  0.82739163  0.26861571     0.16100
H850        H  0.13263644  0.93232287  0.21541202     0.16000
C851        C  0.09398317  0.79647998  0.02932949     0.86300
C852        C  0.07368164  0.77133376  0.05340599    -0.53900
C853        C  0.09496116  0.76046462  0.07886137     0.09300
C854        C  0.13479400  0.77195019  0.07654304     0.20200
C855        C  0.11310973  0.82487720  0.05393276    -0.54600
C856        C  0.13337191  0.81179644  0.07879306     0.09400
C857        C  0.12661255  0.77270845  0.01367608    -0.54100
C858        C  0.14808049  0.75998450  0.03892295     0.09900
H859        H  0.04437998  0.76528352  0.05241050     0.14500
H860        H  0.15121738  0.76199611  0.09774599     0.00200
H861        H  0.10891765  0.85297521  0.05315094     0.14800
H862        H  0.13092826  0.76355943  0.98671482     0.14600
C863        C  0.32739904  0.79957352  0.30292482     0.86300
C864        C  0.34664787  0.77639084  0.27275322    -0.53900
C865        C  0.32336647  0.75841339  0.25014817     0.09300
C866        C  0.28164117  0.76420427  0.26193023     0.20200
C867        C  0.29952767  0.82251723  0.28517706    -0.54600
C868        C  0.27634237  0.80484788  0.26308433     0.09400
C869        C  0.30145580  0.77467811  0.32239551    -0.54100
C870        C  0.27678554  0.75582914  0.30183820     0.09900
H871        H  0.37625675  0.77668157  0.26844588     0.14500
H872        H  0.26286955  0.74910029  0.24386353     0.00200
H873        H  0.29861438  0.85102171  0.28909803     0.14800
H874        H  0.29920223  0.77546155  0.35048529     0.14600
C875        C  0.18213954  0.73614535  0.03520641     0.29900
C876        C  0.24312099  0.69735822  0.04912394     0.29900
C877        C  0.17453796  0.70014634  0.04869650    -0.06300
C878        C  0.20650078  0.72634601  0.00323481    -0.07100
C879        C  0.21099497  0.75374689  0.05912068    -0.07000
C880        C  0.20488306  0.68263530  0.05983327    -0.06300
C881        C  0.23785108  0.70558992  0.00881139    -0.07100
C882        C  0.24153266  0.73395669  0.06678744    -0.07000
C883        C  0.19047245  0.66724446  0.08885341    -0.32400
N884        N  0.15313614  0.66517121  0.08778619     0.14100
C885        C  0.14326585  0.68565109  0.06248617    -0.32400
H886        H  0.11547269  0.69094945  0.05516129     0.16100
C887        C  0.25504422  0.70120948  0.47525066    -0.31400
N888        N  0.23611732  0.71971199  0.45204467     0.12800
C889        C  0.20696525  0.73514901  0.46944911    -0.31400
C890        C  0.27012326  0.75711724  0.07153507    -0.31600
N891        N  0.25817337  0.78981684  0.06824591     0.13400
H892        H  0.29865397  0.74978604  0.07067453     0.16000
C893        C  0.22301107  0.78777116  0.05864588    -0.31700
H894        H  0.20842919  0.80870579  0.04772884     0.16000
H895        H  0.18611872  0.74988734  0.45738956     0.16000
H896        H  0.20553587  0.66359004  0.11184457     0.16100
H897        H  0.27867626  0.68500528  0.46792968     0.16000
C898        C  0.18190716  0.69568555  0.33428275     0.29900
C899        C  0.24376960  0.73416772  0.31739513     0.29900
C900        C  0.17544942  0.73084141  0.31945242    -0.06300
C901        C  0.20568578  0.70684897  0.36542555    -0.07100
C902        C  0.21112730  0.67708895  0.31001632    -0.07000
C903        C  0.20608845  0.74795106  0.30702130    -0.06300
C904        C  0.23757955  0.72731510  0.35821678    -0.07100
C905        C  0.24258895  0.69673381  0.30149177    -0.07000
C906        C  0.19272863  0.76390301  0.27868544    -0.32400
N907        N  0.15544194  0.76512087  0.28022477     0.14100
C908        C  0.14487773  0.74507059  0.30625387    -0.32400
H909        H  0.11712065  0.74110679  0.31578049     0.16100
C910        C  0.25515330  0.73144300  0.39081751    -0.31400
N911        N  0.23575581  0.71336769  0.41508643     0.12800
C912        C  0.20593768  0.69836629  0.39929538    -0.31400
C913        C  0.27121720  0.67361184  0.29935966    -0.31600
N914        N  0.25881354  0.64083251  0.30308298     0.13400
H915        H  0.29989185  0.68101149  0.30188262     0.16000
C916        C  0.22278934  0.64315697  0.31170023    -0.31700
H917        H  0.20711672  0.62255377  0.32312546     0.16000
H918        H  0.18489438  0.68371887  0.41248322     0.16000
H919        H  0.20845879  0.76982347  0.25612307     0.16100
H920        H  0.27975171  0.74674058  0.39675407     0.16000
O921        O  0.49099789  0.48367909  0.01149826    -0.80300
O922        O  0.41935529  0.48513638  0.36676678    -0.80300
O923        O  0.00668040  0.51830319  0.43384823    -0.80300
O924        O  0.42421373  0.52766503  0.44924520    -0.80300
O925        O  0.49429473  0.50300939  0.37925938    -0.80400
O926        O  0.42297474  0.50303966  0.99907627    -0.80300
O927        O  0.37270247  0.50414373  0.40159610    -0.80300
O928        O  0.04045466  0.99051541  0.47893333    -0.80300
C929        C  0.02293588  0.49647047  0.50715278     1.09400
C930        C  0.38809676  0.50080876  0.37139352     1.09300
C931        C  0.00710249  0.52550661  0.40262332     1.09400
C932        C  0.41940890  0.53038868  0.48219199     1.09300
O933        O  0.40622685  0.92864022  0.97647085    -0.80300
O934        O  0.50376059  0.92533610  0.38751969    -0.80400
O935        O  0.02580309  0.92173856  0.45522549    -0.80300
O936        O  0.38765971  0.93531708  0.40444727    -0.80300
O937        O  0.43685868  0.91288277  0.37866136    -0.80300
O938        O  0.47323716  0.90949411  0.98515598    -0.80300
O939        O  0.37303373  0.97280810  0.46598602    -0.80200
O940        O  0.04690996  0.96136048  0.39838402    -0.80300
Co941      Co  0.44930043  0.95601400  0.48903891     1.51500
Co942      Co  0.46343058  0.95715121  0.38261962     1.51700
Co943      Co  0.01311672  0.96920527  0.44004906     1.51600
Co944      Co  0.40932343  0.98182983  0.42580720     1.51500
O945        O  0.45779590  0.96189036  0.43728053    -1.42200
C946        C  0.37767811  0.94581437  0.48266304     1.07700
C947        C  0.03456267  0.93654194  0.37901591     1.09400
C948        C  0.00568163  0.90095579  0.47197813     1.09400
C949        C  0.40339812  0.91053796  0.38598113     1.09300
C950        C  0.36790463  0.85426891  0.30938144    -0.02000
C951        C  0.35432913  0.82377351  0.32445024     0.07700
C952        C  0.36340940  0.81965594  0.35979006    -0.02100
C953        C  0.37740368  0.84870440  0.38109213    -0.02100
C954        C  0.38302924  0.88144545  0.36707408     0.07800
C955        C  0.37911910  0.88359541  0.33083878    -0.02300
Br956      Br  0.38957558  0.92689809  0.30964500    -0.00900
Br957      Br  0.37252926  0.85632946  0.25900628    -0.00900
Br958      Br  0.39118731  0.84340669  0.42864922    -0.00900
Br959      Br  0.36694286  0.77330166  0.37626226    -0.00900
C960        C  0.04761551  0.84861923  0.95868744    -0.02000
C961        C  0.01962958  0.86563114  0.97939601     0.07700
C962        C  0.00942713  0.85170960  0.01100539    -0.02100
C963        C  0.03477647  0.83177606  0.02753194    -0.02100
C964        C  0.06587625  0.81607770  0.00838354     0.07800
C965        C  0.07070736  0.82374505  0.97264952    -0.02300
Br966      Br  0.11051281  0.80587649  0.94237322    -0.00900
Br967      Br  0.05039062  0.85617503  0.40973791    -0.00900
Br968      Br  0.02838600  0.83421718  0.07835533    -0.00900
Br969      Br  0.96021888  0.85730102  0.03147568    -0.00900
C970        C  0.38940421  0.52341280  0.31130342    -0.02000
C971        C  0.36913691  0.51138553  0.34023171     0.07700
C972        C  0.33116353  0.50383075  0.33653459    -0.02100
C973        C  0.31262123  0.51493468  0.30770964    -0.02100
C974        C  0.33231255  0.53317823  0.28216392     0.07800
C975        C  0.37094805  0.53089769  0.28104906    -0.02300
Br976      Br  0.39751946  0.52838204  0.23668495    -0.00900
Br977      Br  0.44193398  0.53182571  0.31243272    -0.00900
Br978      Br  0.25978853  0.00753923  0.30541765    -0.00900
Br979      Br  0.30438626  0.97692097  0.36976436    -0.00900
C980        C  0.30045018  0.91460476  0.04083998    -0.02000
C981        C  0.32121885  0.90483906  0.06972821     0.07700
C982        C  0.35612256  0.92031514  0.07471324    -0.02100
C983        C  0.37419177  0.93540956  0.04677209    -0.02100
C984        C  0.35598228  0.93829612  0.01469032     0.07800
C985        C  0.31846435  0.92945076  0.01250547    -0.02300
Br986      Br  0.29320446  0.93290540  0.46913016    -0.00900
Br987      Br  0.24751923  0.90756871  0.03925622    -0.00900
Br988      Br  0.42490911  0.94936692  0.05307429    -0.00900
Br989      Br  0.37668619  0.92645495  0.12091909    -0.00900
C990        C  0.08871033  0.58667002  0.38750275    -0.02000
C991        C  0.07152633  0.61469460  0.37245829     0.07700
C992        C  0.03282899  0.61809103  0.37798765    -0.02100
C993        C  0.01141220  0.58865461  0.38661247    -0.02100
C994        C  0.02872367  0.55716509  0.39359056     0.07800
C995        C  0.06752146  0.55798575  0.39771351    -0.02300
Br996      Br  0.09299733  0.02080781  0.41791700    -0.00900
Br997      Br  0.14159269  0.58691920  0.39344925    -0.00900
Br998      Br  0.45886688  0.59251311  0.39169155    -0.00900
Br999      Br  0.01058547  0.66410145  0.38347169    -0.00900
C1000       C  0.40750494  0.56907358  0.03825910    -0.02000
C1001       C  0.40463781  0.56361730  0.00136580     0.07700
C1002       C  0.38467493  0.58889825  0.98423034    -0.02100
C1003       C  0.36773990  0.61766103  0.00360427    -0.02100
C1004       C  0.36248210  0.61740219  0.04030863     0.07800
C1005       C  0.38543148  0.59441366  0.05762118    -0.02300
Br1006     Br  0.38759878  0.59675874  0.10830378    -0.00900
Br1007     Br  0.44214705  0.04223281  0.06294928    -0.00900
Br1008     Br  0.36186854  0.66015005  0.98006823    -0.00900
Br1009     Br  0.37548853  0.58397140  0.43478950    -0.00900
C1010       C  0.04163698  0.88609512  0.29235270    -0.02000
C1011       C  0.07442914  0.86728865  0.29655048     0.07700
C1012       C  0.10005858  0.88242702  0.32214741    -0.02100
C1013       C  0.08820485  0.90756879  0.34853030    -0.02100
C1014       C  0.05273208  0.92079947  0.34737762     0.07800
C1015       C  0.03136446  0.91318790  0.31754506    -0.02300
Br1016     Br  0.48954789  0.94236321  0.31032113    -0.00900
Br1017     Br  0.01272734  0.87898167  0.25079271    -0.00900
Br1018     Br  0.11992658  0.92311430  0.38686049    -0.00900
Br1019     Br  0.15281395  0.87325439  0.32079076    -0.00900
C1020       C  0.04599107  0.51020573  0.06632692    -0.02000
C1021       C  0.04072847  0.52146095  0.03265812     0.07700
C1022       C  0.03646307  0.55789944  0.02923976    -0.02100
C1023       C  0.04105170  0.58242117  0.05809181    -0.02100
C1024       C  0.05492835  0.57146092  0.08931630     0.07800
C1025       C  0.05168044  0.53519889  0.09489982    -0.02300
Br1026     Br  0.04724595  0.52050089  0.14198531    -0.00900
Br1027     Br  0.54571435  0.96063932  0.07326884    -0.00900
Br1028     Br  0.02647108  0.63086578  0.05569593    -0.00900
Br1029     Br  0.02345062  0.57543888  0.48623962    -0.00900
C1030       C  0.08045803  0.59678098  0.61132108     0.86300
C1031       C  0.10528424  0.61933052  0.58806049    -0.53900
C1032       C  0.12884847  0.64180123  0.60587028     0.09300
C1033       C  0.12594811  0.63910880  0.64578596     0.20200
C1034       C  0.10906967  0.57773358  0.63168682    -0.54600
C1035       C  0.13315947  0.59873145  0.64964105     0.09400
C1036       C  0.06066910  0.62384596  0.63753711    -0.54100
C1037       C  0.08367158  0.64749654  0.65491792     0.09900
H1038       H  0.10501245  0.61726699  0.55966005     0.14500
H1039       H  0.14553280  0.65708846  0.66030771     0.00200
H1040       H  0.11339024  0.54974711  0.62841773     0.14800
H1041       H  0.03091936  0.62630340  0.63896945     0.14600
C1042       C  0.07105134  0.68420525  0.67305557     0.29900
C1043       C  0.07052644  0.75229052  0.70460221     0.29900
C1044       C  0.08939250  0.71230150  0.65276915    -0.06300
C1045       C  0.03142875  0.70104867  0.67936074    -0.07100
C1046       C  0.08577477  0.68922287  0.70961836    -0.07000
C1047       C  0.08838175  0.74689076  0.66818997    -0.06300
C1048       C  0.03119310  0.73607205  0.69624773    -0.07100
C1049       C  0.08597962  0.72356312  0.72550397    -0.07000
C1050       C  0.08149666  0.76737997  0.64102108    -0.32400
N1051       N  0.08083969  0.74767111  0.61033172     0.14100
C1052       C  0.08452927  0.71423567  0.61752744    -0.32400
H1053       H  0.07721738  0.69232267  0.59941370     0.16100
C1054       C  0.49454039  0.74660698  0.69850382    -0.31400
N1055       N  0.47292310  0.72023578  0.68341946     0.12800
C1056       C  0.49498761  0.69275367  0.67159114    -0.31400
C1057       C  0.07925570  0.72044496  0.76070035    -0.31600
N1058       N  0.07597552  0.68637457  0.76709520     0.13400
H1059       H  0.07219650  0.74193019  0.77968291     0.16000
C1060       C  0.07739889  0.66775819  0.73589621    -0.31700
H1061       H  0.06669768  0.64141771  0.73220294     0.16000
H1062       H  0.48511486  0.66840817  0.65852849     0.16000
H1063       H  0.06983713  0.79324068  0.64413907     0.16100
H1064       H  0.48444999  0.77178014  0.70954515     0.16000
C1065       C  0.08786738  0.83842870  0.76906787     0.86300
C1066       C  0.11105532  0.81224217  0.78712871    -0.53900
C1067       C  0.13252311  0.79101717  0.76568826     0.09300
C1068       C  0.12670365  0.79610122  0.72653633     0.20200
C1069       C  0.11304094  0.85727577  0.74411606    -0.54600
C1070       C  0.13409460  0.83651587  0.72240740     0.09400
C1071       C  0.06343570  0.81223995  0.74509315    -0.54100
C1072       C  0.08380267  0.78899158  0.72258356     0.09900
H1073       H  0.11017857  0.81032184  0.81528278     0.14500
H1074       H  0.14437135  0.77838134  0.70905222     0.00200
H1075       H  0.11592022  0.88565228  0.74572570     0.14800
H1076       H  0.03402294  0.80870088  0.74928052     0.14600
C1077       C  0.22624175  0.57183210  0.70724849     0.29900
C1078       C  0.16608555  0.58366910  0.66845012     0.29900
C1079       C  0.23379709  0.58812479  0.67299753    -0.06300
C1080       C  0.20411122  0.53850891  0.69596688    -0.07100
C1081       C  0.19615338  0.59434110  0.72555333    -0.07000
C1082       C  0.20404882  0.59388793  0.65281908    -0.06300
C1083       C  0.17257567  0.54362550  0.67586132    -0.07100
C1084       C  0.16589892  0.60110227  0.70569937    -0.07000
C1085       C  0.21914673  0.60458061  0.62172831    -0.32400
N1086       N  0.25613964  0.61077048  0.62521505     0.14100
C1087       C  0.26530278  0.59704524  0.65518670    -0.32400
H1088       H  0.29278232  0.59146636  0.66280420     0.16100
C1089       C  0.15662294  0.50988439  0.67048626    -0.31400
N1090       N  0.17668714  0.98635964  0.68743943     0.12800
C1091       C  0.20547561  0.50383179  0.70276235    -0.31400
C1092       C  0.13657513  0.60556701  0.72902917    -0.31600
N1093       N  0.14787275  0.60317559  0.76204559     0.13400
H1094       H  0.10842301  0.60469658  0.72172341     0.16000
C1095       C  0.18354325  0.59390721  0.75965758    -0.31700
H1096       H  0.19832921  0.58330523  0.78045970     0.16000
H1097       H  0.22647307  0.99136859  0.71683476     0.16000
H1098       H  0.20441116  0.60582329  0.59779349     0.16100
H1099       H  0.13299198  0.00260503  0.65479100     0.16000
C1100       C  0.33213807  0.63904037  0.56155077     0.86300
C1101       C  0.34889468  0.66635539  0.58902581    -0.53900
C1102       C  0.32441923  0.68266080  0.61216050     0.09300
C1103       C  0.28300783  0.67145691  0.60296391     0.20200
C1104       C  0.30748737  0.61428258  0.58238112    -0.54600
C1105       C  0.28132982  0.63050893  0.60359576     0.09400
C1106       C  0.30278550  0.65946009  0.54206471    -0.54100
C1107       C  0.27681339  0.67701157  0.56311483     0.09900
H1108       H  0.37839506  0.67020711  0.59145636     0.14500
H1109       H  0.26264820  0.68511896  0.62114698     0.00200
H1110       H  0.31015676  0.58584780  0.58003050     0.14800
H1111       H  0.29936811  0.65675572  0.51421818     0.14600
C1112       C  0.09331911  0.63430018  0.84501240     0.86300
C1113       C  0.07061037  0.65704919  0.82162663    -0.53900
C1114       C  0.09123931  0.67224371  0.79689168     0.09300
C1115       C  0.13174527  0.66227020  0.79600964     0.20200
C1116       C  0.11173470  0.60732870  0.81755249    -0.54600
C1117       C  0.13149878  0.62227927  0.79214349     0.09400
C1118       C  0.12566571  0.65883618  0.85887819    -0.54100
C1119       C  0.14632845  0.67292558  0.83274365     0.09900
H1120       H  0.04089797  0.65690626  0.82022064     0.14500
H1121       H  0.14747952  0.67364021  0.77428569     0.00200
H1122       H  0.10812423  0.57901369  0.81736806     0.14800
H1123       H  0.13158489  0.66370958  0.88638202     0.14600
C1124       C  0.33495801  0.73899670  0.71362918     0.29900
C1125       C  0.33591185  0.70381928  0.64768834     0.29900
C1126       C  0.32007780  0.75892829  0.68399603    -0.06300
C1127       C  0.37459738  0.73014292  0.69794968    -0.07100
C1128       C  0.31759272  0.70257017  0.71059836    -0.07000
C1129       C  0.32104766  0.74133156  0.65037204    -0.06300
C1130       C  0.37538670  0.71145598  0.66394882    -0.07100
C1131       C  0.31786875  0.68489170  0.67721395    -0.07000
C1132       C  0.33204600  0.76680816  0.62819164    -0.32400
N1133       N  0.33458534  0.79908390  0.64523701     0.14100
C1134       C  0.32958783  0.79351792  0.67932281    -0.32400
H1135       H  0.33892327  0.81200956  0.70010170     0.16100
C1136       C  0.41260763  0.70588573  0.65538075    -0.31400
N1137       N  0.43369241  0.72074547  0.68193302     0.12800
C1138       C  0.41087882  0.73557458  0.70765906    -0.31400
C1139       C  0.32449924  0.65003166  0.68211932    -0.31600
N1140       N  0.32739250  0.64515944  0.71629873     0.13400
H1141       H  0.33367619  0.63095473  0.66156693     0.16000
C1142       C  0.32459269  0.67725484  0.73334043    -0.31700
H1143       H  0.33531721  0.68303132  0.75921946     0.16000
H1144       H  0.42020309  0.74875437  0.73190109     0.16000
H1145       H  0.34402052  0.76125876  0.60228331     0.16100
H1146       H  0.42361321  0.69245551  0.63155272     0.16000
C1147       C  0.30719069  0.87549541  0.59183600     0.86300
C1148       C  0.29015672  0.84583999  0.56768870    -0.53900
C1149       C  0.27395456  0.82048205  0.58510100     0.09300
C1150       C  0.27608552  0.82567298  0.62466208     0.20200
C1151       C  0.27642194  0.88834492  0.61814238    -0.54600
C1152       C  0.26007074  0.86215563  0.63531123     0.09400
C1153       C  0.33448968  0.85419835  0.61334677    -0.54100
C1154       C  0.31710023  0.82831616  0.63089454     0.09900
H1155       H  0.29191892  0.84413814  0.53927119     0.14500
H1156       H  0.26244670  0.80385598  0.63779399     0.00200
H1157       H  0.26811628  0.91533754  0.62120634     0.14800
H1158       H  0.36428463  0.85582956  0.61126964     0.14600
C1159       C  0.31250002  0.56208954  0.76485837     0.86300
C1160       C  0.29351772  0.58645600  0.79396194    -0.53900
C1161       C  0.27337495  0.61199659  0.78166606     0.09300
C1162       C  0.27347840  0.61167886  0.74208012     0.20200
C1163       C  0.28158453  0.54844095  0.73999912    -0.54600
C1164       C  0.26044436  0.57460543  0.72909562     0.09400
C1165       C  0.33525771  0.58879448  0.74380184    -0.54100
C1166       C  0.31389413  0.61422216  0.73157129     0.09900
H1167       H  0.29737320  0.58490171  0.82182347     0.14500
H1168       H  0.25707760  0.63345471  0.73281120     0.00200
H1169       H  0.27709766  0.52085825  0.73242584     0.14800
H1170       H  0.36494385  0.59040852  0.74162242     0.14600
C1171       C  0.22621989  0.86414705  0.65943456     0.29900
C1172       C  0.16561539  0.85196232  0.70052835     0.29900
C1173       C  0.23325118  0.84822258  0.69383689    -0.06300
C1174       C  0.20382948  0.89731592  0.67115787    -0.07100
C1175       C  0.19641369  0.84079131  0.64258038    -0.07000
C1176       C  0.20296716  0.84239986  0.71470986    -0.06300
C1177       C  0.17224878  0.89193961  0.69266083    -0.07100
C1178       C  0.16550218  0.83429254  0.66344522    -0.07000
C1179       C  0.21599043  0.83010732  0.74491412    -0.32400
N1180       N  0.25266675  0.82345652  0.74067351     0.14100
C1181       C  0.26363208  0.83796507  0.71095977    -0.32400
H1182       H  0.29152326  0.84376681  0.70349460     0.16100
C1183       C  0.15634921  0.92543113  0.69874355    -0.31400
N1184       N  0.17662193  0.94922208  0.68109315     0.12800
C1185       C  0.20544918  0.93217778  0.66464808    -0.31400
C1186       C  0.13648036  0.83096140  0.64095018    -0.31600
N1187       N  0.14861015  0.83273982  0.60757190     0.13400
H1188       H  0.10814398  0.83397400  0.64901392     0.16000
C1189       C  0.18455857  0.84109501  0.60887270    -0.31700
H1190       H  0.20018067  0.85111758  0.58745202     0.16000
H1191       H  0.22673237  0.94526738  0.65059843     0.16000
H1192       H  0.19999283  0.82737497  0.76856738     0.16100
H1193       H  0.13258746  0.93230578  0.71535364     0.16000
C1194       C  0.09400439  0.79644614  0.52925014     0.86300
C1195       C  0.07374057  0.77127351  0.55332142    -0.53900
C1196       C  0.09502669  0.76044409  0.57878990     0.09300
C1197       C  0.13484397  0.77197052  0.57647952     0.20200
C1198       C  0.11311076  0.82486749  0.55385276    -0.54600
C1199       C  0.13338180  0.81181397  0.57872351     0.09400
C1200       C  0.12669867  0.77274041  0.51360935    -0.54100
C1201       C  0.14815138  0.76001559  0.53886603     0.09900
H1202       H  0.04444092  0.76520940  0.55233309     0.14500
H1203       H  0.15127243  0.76203564  0.59768894     0.00200
H1204       H  0.10889919  0.85296174  0.55306145     0.14800
H1205       H  0.13114602  0.76367056  0.48665634     0.14600
C1206       C  0.32725488  0.79942479  0.80289495     0.86300
C1207       C  0.34651727  0.77626442  0.77275602    -0.53900
C1208       C  0.32325009  0.75834674  0.75013548     0.09300
C1209       C  0.28151200  0.76414333  0.76189573     0.20200
C1210       C  0.29940527  0.82242415  0.78517906    -0.54600
C1211       C  0.27623529  0.80479283  0.76306135     0.09400
C1212       C  0.30131628  0.77457240  0.82237542    -0.54100
C1213       C  0.27663860  0.75576644  0.80181506     0.09900
H1214       H  0.37613087  0.77653142  0.76847455     0.14500
H1215       H  0.26275023  0.74904820  0.74381329     0.00200
H1216       H  0.29850376  0.85092802  0.78912930     0.14800
H1217       H  0.29905738  0.77536406  0.85046366     0.14600
C1218       C  0.18221401  0.73618174  0.53516313     0.29900
C1219       C  0.24317869  0.69739517  0.54911720     0.29900
C1220       C  0.17460307  0.70017966  0.54864950    -0.06300
C1221       C  0.20659960  0.72638556  0.50320446    -0.07100
C1222       C  0.21105237  0.75378387  0.55909298    -0.07000
C1223       C  0.20494238  0.68267130  0.55979699    -0.06300
C1224       C  0.23794078  0.70562574  0.50880229    -0.07100
C1225       C  0.24158568  0.73399396  0.56677735    -0.07000
C1226       C  0.19053588  0.66726527  0.58880380    -0.32400
N1227       N  0.15320344  0.66519279  0.58773216     0.14100
C1228       C  0.14333010  0.68567447  0.56243267    -0.32400
H1229       H  0.11553540  0.69097635  0.55511414     0.16100
C1230       C  0.25492914  0.70117979  0.97524611    -0.31400
N1231       N  0.23597573  0.71967879  0.95205389     0.12800
C1232       C  0.20683075  0.73510549  0.96947940    -0.31400
C1233       C  0.27018096  0.75715320  0.57150348    -0.31600
N1234       N  0.25823291  0.78984937  0.56819246     0.13400
H1235       H  0.29870176  0.74982268  0.57062424     0.16000
C1236       C  0.22307150  0.78780380  0.55859920    -0.31700
H1237       H  0.20849333  0.80873439  0.54767068     0.16000
H1238       H  0.18596792  0.74984064  0.95743893     0.16000
H1239       H  0.20559643  0.66359457  0.61178775     0.16100
H1240       H  0.27856518  0.68498437  0.96790993     0.16000
C1241       C  0.18174120  0.69567841  0.83429385     0.29900
C1242       C  0.24362185  0.73414952  0.81739562     0.29900
C1243       C  0.17530860  0.73083597  0.81943832    -0.06300
C1244       C  0.20552481  0.70685379  0.86543214    -0.07100
C1245       C  0.21097300  0.67708288  0.81002769    -0.07000
C1246       C  0.20596012  0.74794191  0.80701627    -0.06300
C1247       C  0.23742899  0.72730809  0.85822182    -0.07100
C1248       C  0.24243408  0.69672792  0.80149866    -0.07000
C1249       C  0.19264065  0.76388445  0.77866039    -0.32400
N1250       N  0.15535733  0.76508660  0.78015462     0.14100
C1251       C  0.14476304  0.74504990  0.80618732    -0.32400
H1252       H  0.11700039  0.74110498  0.81570581     0.16100
C1253       C  0.25500703  0.73142471  0.89082443    -0.31400
N1254       N  0.23559929  0.71335593  0.91509277     0.12800
C1255       C  0.20577190  0.69837333  0.89930132    -0.31400
C1256       C  0.27107142  0.67362331  0.79935825    -0.31600
N1257       N  0.25867766  0.64084709  0.80308932     0.13400
H1258       H  0.29974585  0.68103120  0.80186338     0.16000
C1259       C  0.22265160  0.64315796  0.81170971    -0.31700
H1260       H  0.20698795  0.62255017  0.82313645     0.16000
H1261       H  0.18471886  0.68373137  0.91248478     0.16000
H1262       H  0.20839175  0.76981327  0.75611723     0.16100
H1263       H  0.27961573  0.74670475  0.89676194     0.16000
O1264       O  0.49099868  0.48369011  0.51151079    -0.80300
O1265       O  0.41926020  0.48504206  0.86683203    -0.80300
O1266       O  0.00134609  0.51971263  0.93494520    -0.80300
O1267       O  0.42418031  0.52760410  0.94926346    -0.80300
O1268       O  0.49420971  0.50297604  0.87923638    -0.80400
O1269       O  0.42297871  0.50308916  0.49904989    -0.80300
O1270       O  0.37262280  0.50403482  0.90168304    -0.80300
O1271       O  0.04044513  0.99052684  0.97892203    -0.80300
C1272       C  0.02896024  0.49595019  0.00384390     1.09400
C1273       C  0.38799379  0.50070090  0.87147268     1.09300
C1274       C  0.00575636  0.52532307  0.90320270     1.09400
C1275       C  0.41938950  0.53033565  0.98221178     1.09300
O1276       O  0.40611148  0.92852150  0.47537476    -0.80300
O1277       O  0.50268336  0.92436377  0.88769649    -0.80400
O1278       O  0.02581718  0.92169371  0.95513584    -0.80300
O1279       O  0.38739809  0.93462994  0.90435406    -0.80300
O1280       O  0.43618067  0.91287616  0.87662095    -0.80300
O1281       O  0.47480538  0.91062016  0.48500767    -0.80300
O1282       O  0.37325190  0.97265336  0.96596913    -0.80200
O1283       O  0.04688548  0.96135008  0.89833334    -0.80300
Co1284     Co  0.45040412  0.95579274  0.98774084     1.51500
Co1285     Co  0.46360040  0.95647141  0.88130238     1.51700
Co1286     Co  0.01312176  0.96919126  0.94002937     1.51600
Co1287     Co  0.40925060  0.98090110  0.92539043     1.51500
O1288       O  0.45738736  0.95918594  0.93484863    -1.42200
C1289       C  0.37781882  0.94602912  0.98316330     1.07700
C1290       C  0.03453649  0.93651459  0.87898445     1.09400
C1291       C  0.00571124  0.90090768  0.97190234     1.09400
C1292       C  0.40300135  0.91022930  0.88520134     1.09300
C1293       C  0.36775523  0.85395385  0.80914786    -0.02000
C1294       C  0.35420509  0.82351739  0.82432838     0.07700
C1295       C  0.36321601  0.81944938  0.85969431    -0.02100
C1296       C  0.37710581  0.84855169  0.88091443    -0.02100
C1297       C  0.38254288  0.88121250  0.86672440     0.07800
C1298       C  0.37874341  0.88332672  0.83051320    -0.02300
Br1299     Br  0.38933247  0.92664397  0.80925633    -0.00900
Br1300     Br  0.37238154  0.85604601  0.75879276    -0.00900
Br1301     Br  0.39111721  0.84342639  0.92846763    -0.00900
Br1302     Br  0.36673696  0.77316134  0.87632912    -0.00900
C1303       C  0.04744549  0.84856672  0.45870599    -0.02000
C1304       C  0.01960992  0.86570166  0.47951902     0.07700
C1305       C  0.00948816  0.85184644  0.51118610    -0.02100
C1306       C  0.03483914  0.83183356  0.52762438    -0.02100
C1307       C  0.06581677  0.81602482  0.50836251     0.07800
C1308       C  0.07041379  0.82351752  0.47255783    -0.02300
Br1309     Br  0.10954869  0.80488382  0.44189726    -0.00900
Br1310     Br  0.05054182  0.85605945  0.90968652    -0.00900
Br1311     Br  0.02856202  0.83417447  0.57846088    -0.00900
Br1312     Br  0.96040597  0.85768251  0.53189657    -0.00900
C1313       C  0.38928939  0.52331666  0.81139469    -0.02000
C1314       C  0.36902086  0.51130269  0.84032763     0.07700
C1315       C  0.33102477  0.50383523  0.83666502    -0.02100
C1316       C  0.31248847  0.51497961  0.80785284    -0.02100
C1317       C  0.33219928  0.53320016  0.78230123     0.07800
C1318       C  0.37082948  0.53086256  0.78116424    -0.02300
Br1319     Br  0.39738221  0.52835817  0.73679145    -0.00900
Br1320     Br  0.44183553  0.53164165  0.81248594    -0.00900
Br1321     Br  0.25967744  0.00763637  0.80559812    -0.00900
Br1322     Br  0.30435550  0.97715962  0.86996759    -0.00900
C1323       C  0.30046440  0.91463225  0.54083146    -0.02000
C1324       C  0.32122962  0.90484832  0.56970559     0.07700
C1325       C  0.35614306  0.92026002  0.57462884    -0.02100
C1326       C  0.37426389  0.93517576  0.54658962    -0.02100
C1327       C  0.35609934  0.93795198  0.51442563     0.07800
C1328       C  0.31849438  0.92937176  0.51243147    -0.02300
Br1329     Br  0.29335881  0.93268147  0.96905305    -0.00900
Br1330     Br  0.24752542  0.90765825  0.53932127    -0.00900
Br1331     Br  0.42479637  0.94918679  0.55322444    -0.00900
Br1332     Br  0.37665264  0.92645173  0.62089244    -0.00900
C1333       C  0.08826761  0.58631194  0.88741748    -0.02000
C1334       C  0.07119584  0.61442002  0.87242843     0.07700
C1335       C  0.03252668  0.61787899  0.87808506    -0.02100
C1336       C  0.01101677  0.58856301  0.88704815    -0.02100
C1337       C  0.02805235  0.55695546  0.89423183     0.07800
C1338       C  0.06699983  0.55756854  0.89763633    -0.02300
Br1339     Br  0.09294886  0.02081842  0.91783782    -0.00900
Br1340     Br  0.14115603  0.58683306  0.89360018    -0.00900
Br1341     Br  0.45875233  0.59244863  0.89158116    -0.00900
Br1342     Br  0.01041917  0.66395889  0.88337732    -0.00900
C1343       C  0.40749321  0.56908558  0.53825402    -0.02000
C1344       C  0.40465323  0.56366116  0.50135569     0.07700
C1345       C  0.38469606  0.58895028  0.48422800    -0.02100
C1346       C  0.36774674  0.61769840  0.50361235    -0.02100
C1347       C  0.36247625  0.61741475  0.54031664     0.07800
C1348       C  0.38540573  0.59440584  0.55762264    -0.02300
Br1349     Br  0.38751087  0.59668064  0.60830883    -0.00900
Br1350     Br  0.44185687  0.04252802  0.56335086    -0.00900
Br1351     Br  0.36183522  0.66018425  0.48007593    -0.00900
Br1352     Br  0.37543709  0.58389283  0.93479947    -0.00900
C1353       C  0.04155508  0.88601859  0.79234371    -0.02000
C1354       C  0.07436821  0.86723457  0.79650911     0.07700
C1355       C  0.09999737  0.88235218  0.82211780    -0.02100
C1356       C  0.08814618  0.90747629  0.84851590    -0.02100
C1357       C  0.05269315  0.92074699  0.84735017     0.07800
C1358       C  0.03131551  0.91313337  0.81752414    -0.02300
Br1359     Br  0.48974131  0.94336346  0.81125182    -0.00900
Br1360     Br  0.01253249  0.87881897  0.75086139    -0.00900
Br1361     Br  0.11983506  0.92292110  0.88690468    -0.00900
Br1362     Br  0.15275088  0.87316658  0.82077620    -0.00900
C1363       C  0.04430708  0.51051199  0.56778210    -0.02000
C1364       C  0.03712657  0.52169479  0.53460623     0.07700
C1365       C  0.03466953  0.55806258  0.53036445    -0.02100
C1366       C  0.04066093  0.58272539  0.55868971    -0.02100
C1367       C  0.05477773  0.57173439  0.58983524     0.07800
C1368       C  0.05127917  0.53555815  0.59583269    -0.02300
Br1369     Br  0.04751457  0.52096598  0.64293928    -0.00900
Br1370     Br  0.54577398  0.96087996  0.57436582    -0.00900
Br1371     Br  0.02680783  0.63127563  0.55581221    -0.00900
Br1372     Br  0.02421018  0.57565643  0.98565555    -0.00900
C1373       C  0.58039884  0.09662296  0.11114888     0.86300
C1374       C  0.60525244  0.11926688  0.08800314    -0.53900
C1375       C  0.62877641  0.14173214  0.10586971     0.09300
C1376       C  0.62582595  0.13899992  0.14576670     0.20200
C1377       C  0.60898511  0.07761109  0.13161608    -0.54600
C1378       C  0.63306437  0.09863121  0.14960950     0.09400
C1379       C  0.56055699  0.12371411  0.13739666    -0.54100
C1380       C  0.58355051  0.14738675  0.15486495     0.09900
H1381       H  0.60501988  0.11727907  0.05960180     0.14500
H1382       H  0.64539119  0.15697917  0.16031496     0.00200
H1383       H  0.61328176  0.04962096  0.12841194     0.14800
H1384       H  0.53080704  0.12616935  0.13879033     0.14600
C1385       C  0.57100191  0.18414509  0.17307557     0.29900
C1386       C  0.57053373  0.25227205  0.20465851     0.29900
C1387       C  0.58933997  0.21226652  0.15279908    -0.06300
C1388       C  0.53141059  0.20101827  0.17943239    -0.07100
C1389       C  0.58577954  0.18918349  0.20963346    -0.07000
C1390       C  0.58835084  0.24686433  0.16823588    -0.06300
C1391       C  0.53119328  0.23604450  0.19633112    -0.07100
C1392       C  0.58601271  0.22353908  0.22551901    -0.07000
C1393       C  0.58144074  0.26736661  0.14108658    -0.32400
N1394       N  0.58076448  0.24767135  0.11039188     0.14100
C1395       C  0.58445802  0.21422735  0.11756619    -0.32400
H1396       H  0.57713728  0.19232252  0.09944410     0.16100
C1397       C  0.99460186  0.24654234  0.19848667    -0.31400
N1398       N  0.97294855  0.22018864  0.18342112     0.12800
C1399       C  0.99497719  0.19267377  0.17161243    -0.31400
C1400       C  0.57935340  0.22045232  0.26072077    -0.31600
N1401       N  0.57608188  0.18639327  0.26712509     0.13400
H1402       H  0.57233781  0.24194501  0.27970921     0.16000
C1403       C  0.57744928  0.16774691  0.23594072    -0.31700
H1404       H  0.56674048  0.14140189  0.23228776     0.16000
H1405       H  0.98507624  0.16833902  0.15854803     0.16000
H1406       H  0.56978288  0.29323046  0.14422371     0.16100
H1407       H  0.98454937  0.27173905  0.20949932     0.16000
C1408       C  0.58792020  0.33845186  0.26913153     0.86300
C1409       C  0.61111654  0.31227183  0.28720162    -0.53900
C1410       C  0.63257480  0.29103100  0.26576094     0.09300
C1411       C  0.62673693  0.29609747  0.22660705     0.20200
C1412       C  0.61308777  0.35728254  0.24416783    -0.54600
C1413       C  0.63413569  0.33651354  0.22246718     0.09400
C1414       C  0.56347580  0.31225536  0.24516719    -0.54100
C1415       C  0.58383048  0.28898248  0.22266176     0.09900
H1416       H  0.61026092  0.31037503  0.31535893     0.14500
H1417       H  0.64439841  0.27837088  0.20912398     0.00200
H1418       H  0.61597117  0.38565843  0.24576429     0.14800
H1419       H  0.53405588  0.30875449  0.24934448     0.14600
C1420       C  0.72625476  0.07183264  0.20722170     0.29900
C1421       C  0.66605265  0.08362640  0.16842892     0.29900
C1422       C  0.73378514  0.08812320  0.17297225    -0.06300
C1423       C  0.70412778  0.03849915  0.19595289    -0.07100
C1424       C  0.69617154  0.09434104  0.22552213    -0.07000
C1425       C  0.70402482  0.09386955  0.15279139    -0.06300
C1426       C  0.67257839  0.04359658  0.17585844    -0.07100
C1427       C  0.66589146  0.10107698  0.20567905    -0.07000
C1428       C  0.71913835  0.10457198  0.12170539    -0.32400
N1429       N  0.75613164  0.11077605  0.12520224     0.14100
C1430       C  0.76529129  0.09705784  0.15517435    -0.32400
H1431       H  0.79277139  0.09149107  0.16279950     0.16100
C1432       C  0.65662738  0.00985203  0.17051191    -0.31400
N1433       N  0.67673479  0.48636829  0.18747682     0.12800
C1434       C  0.70549996  0.00382354  0.20276360    -0.31400
C1435       C  0.63659254  0.10554345  0.22903241    -0.31600
N1436       N  0.64792679  0.10317513  0.26203973     0.13400
H1437       H  0.60842341  0.10465894  0.22175051     0.16000
C1438       C  0.68359865  0.09392503  0.25963434    -0.31700
H1439       H  0.69840660  0.08334084  0.28043169     0.16000
H1440       H  0.72653524  0.49138166  0.21685356     0.16000
H1441       H  0.70441393  0.10580783  0.09776366     0.16100
H1442       H  0.63302680  0.50261122  0.15484467     0.16000
C1443       C  0.83213585  0.13903428  0.06153276     0.86300
C1444       C  0.84889233  0.16636797  0.08898839    -0.53900
C1445       C  0.82442171  0.18267412  0.11212761     0.09300
C1446       C  0.78300449  0.17145349  0.10294582     0.20200
C1447       C  0.80750006  0.11428103  0.08238371    -0.54600
C1448       C  0.78133357  0.13050914  0.10358851     0.09400
C1449       C  0.80276412  0.15943990  0.04204291    -0.54100
C1450       C  0.77678345  0.17698565  0.06309810     0.09900
H1451       H  0.87839283  0.17023054  0.09140760     0.14500
H1452       H  0.76264257  0.18511251  0.12112931     0.00200
H1453       H  0.81017963  0.08584718  0.08004688     0.14800
H1454       H  0.79935889  0.15674596  0.01419313     0.14600
C1455       C  0.59353023  0.13443502  0.34501246     0.86300
C1456       C  0.57078913  0.15716982  0.32167037    -0.53900
C1457       C  0.59139433  0.17230727  0.29690375     0.09300
C1458       C  0.63189899  0.16230751  0.29598034     0.20200
C1459       C  0.61185326  0.10740265  0.31756066    -0.54600
C1460       C  0.63160276  0.12231501  0.29213063     0.09400
C1461       C  0.62587614  0.15891707  0.35885781    -0.54100
C1462       C  0.64651567  0.17295629  0.33271208     0.09900
H1463       H  0.54107391  0.15705147  0.32030537     0.14500
H1464       H  0.64762515  0.17366111  0.27424248     0.00200
H1465       H  0.60819859  0.07909368  0.31740024     0.14800
H1466       H  0.63180748  0.16379539  0.38635803     0.14600
C1467       C  0.83501416  0.23901998  0.21361730     0.29900
C1468       C  0.83593341  0.20383555  0.14765653     0.29900
C1469       C  0.82012290  0.25894552  0.18398182    -0.06300
C1470       C  0.87463505  0.23015395  0.19791836    -0.07100
C1471       C  0.81763012  0.20259023  0.21057566    -0.07000
C1472       C  0.82107545  0.24134652  0.15035212    -0.06300
C1473       C  0.87541479  0.21146815  0.16391442    -0.07100
C1474       C  0.81789513  0.18491407  0.17718272    -0.07000
C1475       C  0.83207151  0.26681762  0.12816840    -0.32400
N1476       N  0.83462106  0.29908979  0.14521543     0.14100
C1477       C  0.82964002  0.29352972  0.17930331    -0.32400
H1478       H  0.83898994  0.31202610  0.20008089     0.16100
C1479       C  0.91263696  0.20589134  0.15535221    -0.31400
N1480       N  0.93372175  0.22074375  0.18191046     0.12800
C1481       C  0.91091129  0.23557356  0.20763455    -0.31400
C1482       C  0.82451919  0.15005000  0.18206854    -0.31600
N1483       N  0.82741893  0.14516821  0.21624237     0.13400
H1484       H  0.83367821  0.13097348  0.16150772     0.16000
C1485       C  0.82462706  0.17725872  0.23329923    -0.31700
H1486       H  0.83536384  0.18302206  0.25917450     0.16000
H1487       H  0.92023415  0.24873600  0.23188590     0.16000
H1488       H  0.84402604  0.26126885  0.10224841     0.16100
H1489       H  0.92364290  0.19245376  0.13152837     0.16000
C1490       C  0.80717345  0.37547056  0.09183314     0.86300
C1491       C  0.79011889  0.34580455  0.06769922    -0.53900
C1492       C  0.77392147  0.32045273  0.08513160     0.09300
C1493       C  0.77609003  0.32566018  0.12468880     0.20200
C1494       C  0.77641788  0.38832770  0.11814851    -0.54600
C1495       C  0.76007944  0.36214533  0.13533438     0.09400
C1496       C  0.83448619  0.35418705  0.11332588    -0.54100
C1497       C  0.81711330  0.32831118  0.13088720     0.09900
H1498       H  0.79186373  0.34409268  0.03928136     0.14500
H1499       H  0.76246558  0.30384866  0.13784065     0.00200
H1500       H  0.76810939  0.41531560  0.12120274     0.14800
H1501       H  0.86427983  0.35582306  0.11122791     0.14600
C1502       C  0.81258390  0.06207100  0.26475656     0.86300
C1503       C  0.79363463  0.08642584  0.29389287    -0.53900
C1504       C  0.77347786  0.11197963  0.28163410     0.09300
C1505       C  0.77352747  0.11167587  0.24205003     0.20200
C1506       C  0.78163884  0.04843756  0.23992296    -0.54600
C1507       C  0.76047594  0.07460696  0.22905921     0.09400
C1508       C  0.83531473  0.08878217  0.24368922    -0.54100
C1509       C  0.81393495  0.11422118  0.23150259     0.09900
H1510       H  0.79752675  0.08485651  0.32174694     0.14500
H1511       H  0.75711457  0.13345751  0.23280923     0.00200
H1512       H  0.77715850  0.02085857  0.23232570     0.14800
H1513       H  0.86499820  0.09038923  0.24146787     0.14600
C1514       C  0.72623930  0.36414590  0.15946883     0.29900
C1515       C  0.66565389  0.35196185  0.20058591     0.29900
C1516       C  0.73328745  0.34822961  0.19387039    -0.06300
C1517       C  0.70385170  0.39731532  0.17119222    -0.07100
C1518       C  0.69643058  0.34078577  0.14263170    -0.07000
C1519       C  0.70301430  0.34240790  0.21475872    -0.06300
C1520       C  0.67227823  0.39194219  0.19270572    -0.07100
C1521       C  0.66553324  0.33428010  0.16351038    -0.07000
C1522       C  0.71606021  0.33011771  0.24495691    -0.32400
N1523       N  0.75273901  0.32347070  0.24069586     0.14100
C1524       C  0.76367680  0.33796861  0.21097251    -0.32400
H1525       H  0.79158327  0.34376580  0.20348038     0.16100
C1526       C  0.65638880  0.42544067  0.19879357    -0.31400
N1527       N  0.67666129  0.44922890  0.18113785     0.12800
C1528       C  0.70547911  0.43217793  0.16468335    -0.31400
C1529       C  0.63650305  0.33091540  0.14103022    -0.31600
N1530       N  0.64861619  0.33269847  0.10764862     0.13400
H1531       H  0.60816618  0.33389648  0.14910562     0.16000
C1532       C  0.68455835  0.34107946  0.10893037    -0.31700
H1533       H  0.70016377  0.35110481  0.08750015     0.16000
H1534       H  0.72675969  0.44526183  0.15063296     0.16000
H1535       H  0.70007932  0.32738967  0.26861899     0.16100
H1536       H  0.63263557  0.43232196  0.21541376     0.16000
C1537       C  0.59398295  0.29648210  0.02933244     0.86300
C1538       C  0.57367950  0.27133563  0.05340751    -0.53900
C1539       C  0.59495806  0.26046385  0.07886240     0.09300
C1540       C  0.63479145  0.27194813  0.07654526     0.20200
C1541       C  0.61310992  0.32487741  0.05393721    -0.54600
C1542       C  0.63337083  0.31179454  0.07879708     0.09400
C1543       C  0.62661106  0.27270937  0.01367850    -0.54100
C1544       C  0.64807827  0.25998365  0.03892497     0.09900
H1545       H  0.54437761  0.26528667  0.05241127     0.14500
H1546       H  0.65121407  0.26199247  0.09774791     0.00200
H1547       H  0.60891915  0.35297575  0.05315657     0.14800
H1548       H  0.63092518  0.26356041  0.98671682     0.14600
C1549       C  0.82739971  0.29957123  0.30292632     0.86300
C1550       C  0.84664809  0.27638818  0.27275451    -0.53900
C1551       C  0.82336633  0.25841117  0.25014928     0.09300
C1552       C  0.78164124  0.26420264  0.26193143     0.20200
C1553       C  0.79952875  0.32251526  0.28517860    -0.54600
C1554       C  0.77634295  0.30484628  0.26308611     0.09400
C1555       C  0.80145586  0.27467598  0.32239667    -0.54100
C1556       C  0.77678556  0.25582717  0.30183907     0.09900
H1557       H  0.87625697  0.27667832  0.26844726     0.14500
H1558       H  0.76286927  0.24909915  0.24386467     0.00200
H1559       H  0.79861593  0.35101976  0.28909958     0.14800
H1560       H  0.79920127  0.27545996  0.35048630     0.14600
C1561       C  0.68213724  0.23614425  0.03520783     0.29900
C1562       C  0.74311902  0.19735668  0.04912406     0.29900
C1563       C  0.67453576  0.20014457  0.04869666    -0.06300
C1564       C  0.70649863  0.22634624  0.00323594    -0.07100
C1565       C  0.71099259  0.25374497  0.05912278    -0.07000
C1566       C  0.70488108  0.18263316  0.05983275    -0.06300
C1567       C  0.73784909  0.20559007  0.00881176    -0.07100
C1568       C  0.74153023  0.23395445  0.06678897    -0.07000
C1569       C  0.69047083  0.16724215  0.08885296    -0.32400
N1570       N  0.65313445  0.16516924  0.08778653     0.14100
C1571       C  0.64326380  0.18564945  0.06248692    -0.32400
H1572       H  0.61547049  0.19094826  0.05516274     0.16100
C1573       C  0.75504763  0.20120673  0.47524988    -0.31400
N1574       N  0.73612086  0.21970831  0.45204320     0.12800
C1575       C  0.70696903  0.23514645  0.46944685    -0.31400
C1576       C  0.77012088  0.25711469  0.07153805    -0.31600
N1577       N  0.75817098  0.28981447  0.06824987     0.13400
H1578       H  0.79865087  0.24978354  0.07067771     0.16000
C1579       C  0.72300888  0.28776928  0.05864923    -0.31700
H1580       H  0.70842740  0.30870428  0.04773238     0.16000
H1581       H  0.68612287  0.24988449  0.45738645     0.16000
H1582       H  0.70553457  0.16358823  0.11184395     0.16100
H1583       H  0.77867950  0.18500219  0.46792947     0.16000
C1584       C  0.68190692  0.19568391  0.33428361     0.29900
C1585       C  0.74376940  0.23416568  0.31739540     0.29900
C1586       C  0.67544928  0.23083997  0.31945387    -0.06300
C1587       C  0.70568638  0.20684665  0.36542595    -0.07100
C1588       C  0.71112656  0.17708709  0.31001663    -0.07000
C1589       C  0.70608820  0.24794944  0.30702218    -0.06300
C1590       C  0.73758009  0.22731261  0.35821675    -0.07100
C1591       C  0.74258840  0.19673182  0.30149183    -0.07000
C1592       C  0.69272784  0.26390075  0.27868611    -0.32400
N1593       N  0.65544117  0.26511846  0.28022586     0.14100
C1594       C  0.64487738  0.24506871  0.30625545    -0.32400
H1595       H  0.61712038  0.24110467  0.31578210     0.16100
C1596       C  0.75515567  0.23143879  0.39081640    -0.31400
N1597       N  0.73575929  0.21336270  0.41508526     0.12800
C1598       C  0.70594035  0.19836194  0.39929498    -0.31400
C1599       C  0.77121664  0.17360983  0.29936098    -0.31600
N1600       N  0.75881315  0.14083066  0.30308530     0.13400
H1601       H  0.79989140  0.18100971  0.30188440     0.16000
C1602       C  0.72278876  0.14315529  0.31170170    -0.31700
H1603       H  0.70711616  0.12255255  0.32312777     0.16000
H1604       H  0.68489757  0.18371400  0.41248304     0.16000
H1605       H  0.70845794  0.26982146  0.25612321     0.16100
H1606       H  0.77975449  0.24673578  0.39675250     0.16000
O1607       O  0.99099808  0.98367600  0.01149973    -0.80300
O1608       O  0.91935128  0.98513638  0.36676989    -0.80300
O1609       O  0.50667693  0.01830429  0.43384692    -0.80300
O1610       O  0.92421083  0.02766365  0.44924677    -0.80300
O1611       O  0.99429157  0.00301141  0.37925865    -0.80400
O1612       O  0.92297617  0.00303945  0.99907505    -0.80300
O1613       O  0.87269778  0.00414043  0.40159994    -0.80300
O1614       O  0.54045426  0.49051150  0.47893700    -0.80300
C1615       C  0.52293616  0.99647469  0.50714886     1.09400
C1616       C  0.88809198  0.00080732  0.37139724     1.09300
C1617       C  0.50709916  0.02550760  0.40262208     1.09400
C1618       C  0.91940696  0.03038729  0.48219363     1.09300
O1619       O  0.90622678  0.42864040  0.97647384    -0.80300
O1620       O  0.00376121  0.42533587  0.38752367    -0.80400
O1621       O  0.52580082  0.42173620  0.45523058    -0.80300
O1622       O  0.88766067  0.43531956  0.40444475    -0.80300
O1623       O  0.93685974  0.41288323  0.37866080    -0.80300
O1624       O  0.97323769  0.40949658  0.98515797    -0.80300
O1625       O  0.87303311  0.47281293  0.46598315    -0.80200
O1626       O  0.54691188  0.46135667  0.39838784    -0.80300
Co1627     Co  0.94929829  0.45601394  0.48903842     1.51500
Co1628     Co  0.96343262  0.45715112  0.38261998     1.51700
Co1629     Co  0.51311712  0.46920277  0.44005151     1.51600
Co1630     Co  0.90932529  0.48183217  0.42580542     1.51500
O1631       O  0.95779632  0.46189106  0.43728072    -1.42200
C1632       C  0.87767560  0.44581915  0.48266049     1.07700
C1633       C  0.53456325  0.43653901  0.37901941     1.09400
C1634       C  0.50567750  0.40095374  0.47198191     1.09400
C1635       C  0.90339883  0.41053953  0.38597944     1.09300
C1636       C  0.86790644  0.35426621  0.30938155    -0.02000
C1637       C  0.85433001  0.32377174  0.32445169     0.07700
C1638       C  0.86340879  0.31965658  0.35979252    -0.02100
C1639       C  0.87740405  0.34870595  0.38109293    -0.02100
C1640       C  0.88302984  0.38144618  0.36707327     0.07800
C1641       C  0.87911995  0.38359410  0.33083769    -0.02300
Br1642     Br  0.88957448  0.42689619  0.30964215    -0.00900
Br1643     Br  0.87253253  0.35632411  0.25900619    -0.00900
Br1644     Br  0.89118904  0.34341072  0.42865016    -0.00900
Br1645     Br  0.86693728  0.27330417  0.37627005    -0.00900
C1646       C  0.54762150  0.34862531  0.95868979    -0.02000
C1647       C  0.51963238  0.36563452  0.97939623     0.07700
C1648       C  0.50942806  0.35171150  0.01100437    -0.02100
C1649       C  0.53477677  0.33177848  0.02753224    -0.02100
C1650       C  0.56587861  0.31608194  0.00838585     0.07800
C1651       C  0.57071483  0.32375356  0.97265356    -0.02300
Br1652     Br  0.61053226  0.30589887  0.94238437    -0.00900
Br1653     Br  0.55037194  0.35616868  0.40973853    -0.00900
Br1654     Br  0.52838338  0.33421959  0.07835527    -0.00900
Br1655     Br  0.46021754  0.35729879  0.03147031    -0.00900
C1656       C  0.88940002  0.02341297  0.31130818    -0.02000
C1657       C  0.86913202  0.01138479  0.34023564     0.07700
C1658       C  0.83115893  0.00382884  0.33653695    -0.02100
C1659       C  0.81261797  0.01493056  0.30771006    -0.02100
C1660       C  0.83230988  0.03317466  0.28216516     0.07800
C1661       C  0.87094527  0.03089563  0.28105246    -0.02300
Br1662     Br  0.89751830  0.02837689  0.23668927    -0.00900
Br1663     Br  0.94192865  0.03183170  0.31244082    -0.00900
Br1664     Br  0.75979052  0.50754666  0.30542145    -0.00900
Br1665     Br  0.80439156  0.47692170  0.36976227    -0.00900
C1666       C  0.80044973  0.41459960  0.04083987    -0.02000
C1667       C  0.82121779  0.40483579  0.06972931     0.07700
C1668       C  0.85612065  0.42031367  0.07471526    -0.02100
C1669       C  0.87418971  0.43540923  0.04677460    -0.02100
C1670       C  0.85598109  0.43829445  0.01469216     0.07800
C1671       C  0.81846414  0.42944575  0.01250566    -0.02300
Br1672     Br  0.79319622  0.43292854  0.46913583    -0.00900
Br1673     Br  0.74751915  0.40756085  0.03925384    -0.00900
Br1674     Br  0.92490629  0.44936919  0.05307769    -0.00900
Br1675     Br  0.87668368  0.42645329  0.12092140    -0.00900
C1676       C  0.58870647  0.08667246  0.38750451    -0.02000
C1677       C  0.57152257  0.11469686  0.37245994     0.07700
C1678       C  0.53282489  0.11809287  0.37798867    -0.02100
C1679       C  0.51140842  0.08865637  0.38661420    -0.02100
C1680       C  0.52872020  0.05716621  0.39358967     0.07800
C1681       C  0.56751805  0.05798688  0.39771244    -0.02300
Br1682     Br  0.59299951  0.52080659  0.41792050    -0.00900
Br1683     Br  0.64158840  0.08692353  0.39345440    -0.00900
Br1684     Br  0.95886393  0.09251779  0.39170183    -0.00900
Br1685     Br  0.51057976  0.16410269  0.38346994    -0.00900
C1686       C  0.90750416  0.06907189  0.03825856    -0.02000
C1687       C  0.90463932  0.06361726  0.00136500     0.07700
C1688       C  0.88467773  0.08889932  0.98422973    -0.02100
C1689       C  0.86774050  0.11766075  0.00360426    -0.02100
C1690       C  0.86248037  0.11739987  0.04030830     0.07800
C1691       C  0.88542902  0.09441054  0.05762071    -0.02300
Br1692     Br  0.88759340  0.09675270  0.10830335    -0.00900
Br1693     Br  0.94214906  0.54223470  0.06294905    -0.00900
Br1694     Br  0.86186835  0.16015090  0.98007015    -0.00900
Br1695     Br  0.87548016  0.08396639  0.43479230    -0.00900
C1696       C  0.54163585  0.38609159  0.29235622    -0.02000
C1697       C  0.57442789  0.36728488  0.29655363     0.07700
C1698       C  0.60005733  0.38242217  0.32215116    -0.02100
C1699       C  0.58820403  0.40756401  0.34853405    -0.02100
C1700       C  0.55273180  0.42079576  0.34738113     0.07800
C1701       C  0.53136373  0.41318427  0.31754877    -0.02300
Br1702     Br  0.98954551  0.44235971  0.31032593    -0.00900
Br1703     Br  0.51272566  0.37897856  0.25079647    -0.00900
Br1704     Br  0.61992573  0.42310848  0.38686460    -0.00900
Br1705     Br  0.65281239  0.37324780  0.32079575    -0.00900
C1706       C  0.54599247  0.01020135  0.06632912    -0.02000
C1707       C  0.54072990  0.02145664  0.03266029     0.07700
C1708       C  0.53646458  0.05789511  0.02924205    -0.02100
C1709       C  0.54105150  0.08241669  0.05809438    -0.02100
C1710       C  0.55492850  0.07145693  0.08931878     0.07800
C1711       C  0.55168199  0.03519461  0.09490211    -0.02300
Br1712     Br  0.54724895  0.02049610  0.14198753    -0.00900
Br1713     Br  0.04571312  0.46064377  0.07326679    -0.00900
Br1714     Br  0.52646857  0.13086064  0.05569882    -0.00900
Br1715     Br  0.52344572  0.07544398  0.48623724    -0.00900
C1716       C  0.58045997  0.09678275  0.61131823     0.86300
C1717       C  0.60528652  0.11933255  0.58805839    -0.53900
C1718       C  0.62885093  0.14180255  0.60586877     0.09300
C1719       C  0.62595014  0.13910938  0.64578437     0.20200
C1720       C  0.60907141  0.07773448  0.63168378    -0.54600
C1721       C  0.63316130  0.09873185  0.64963864     0.09400
C1722       C  0.56067107  0.12384721  0.63753473    -0.54100
C1723       C  0.58367350  0.14749712  0.65491638     0.09900
H1724       H  0.60501482  0.11726966  0.55965795     0.14500
H1725       H  0.64553481  0.15708868  0.66030657     0.00200
H1726       H  0.61339180  0.04974792  0.62841424     0.14800
H1727       H  0.53092134  0.12630492  0.63896678     0.14600
C1728       C  0.57105301  0.18420566  0.67305434     0.29900
C1729       C  0.57052792  0.25229100  0.70460087     0.29900
C1730       C  0.58939518  0.21230167  0.65276849    -0.06300
C1731       C  0.53143041  0.20104951  0.67935844    -0.07100
C1732       C  0.58577529  0.18922313  0.70961768    -0.07000
C1733       C  0.58838463  0.24689088  0.66818924    -0.06300
C1734       C  0.53119472  0.23607291  0.69624533    -0.07100
C1735       C  0.58598013  0.22356342  0.72550328    -0.07000
C1736       C  0.58150185  0.26738032  0.64102005    -0.32400
N1737       N  0.58084536  0.24767130  0.61033079     0.14100
C1738       C  0.58453344  0.21423582  0.61752660    -0.32400
H1739       H  0.57722168  0.19232307  0.59941256     0.16100
C1740       C  0.99454237  0.24660815  0.69850217    -0.31400
N1741       N  0.97292475  0.22023706  0.68341824     0.12800
C1742       C  0.99498905  0.19275482  0.67158957    -0.31400
C1743       C  0.57925543  0.22044517  0.76069961    -0.31600
N1744       N  0.57597493  0.18637471  0.76709459     0.13400
H1745       H  0.57219586  0.24193047  0.77968192     0.16000
C1746       C  0.57739850  0.16775843  0.73589543    -0.31700
H1747       H  0.56669744  0.14141823  0.73220203     0.16000
H1748       H  0.98511598  0.16840925  0.65852744     0.16000
H1749       H  0.56984279  0.29324130  0.64413771     0.16100
H1750       H  0.98445219  0.27178125  0.70954400     0.16000
C1751       C  0.58786821  0.33843105  0.76906463     0.86300
C1752       C  0.61105673  0.31224536  0.78712609    -0.53900
C1753       C  0.63252411  0.29101957  0.76568604     0.09300
C1754       C  0.62670446  0.29610248  0.72653395     0.20200
C1755       C  0.61304141  0.35727735  0.74411191    -0.54600
C1756       C  0.63409509  0.33651691  0.72240356     0.09400
C1757       C  0.56343657  0.31224133  0.74509077    -0.54100
C1758       C  0.58380364  0.28899241  0.72258173     0.09900
H1759       H  0.61018049  0.31032598  0.81528031     0.14500
H1760       H  0.64437220  0.27838221  0.70905028     0.00200
H1761       H  0.61592048  0.38565379  0.74572092     0.14800
H1762       H  0.53402382  0.30870231  0.74927822     0.14600
C1763       C  0.72624347  0.07183222  0.70724668     0.29900
C1764       C  0.66608737  0.08366922  0.66844780     0.29900
C1765       C  0.73379913  0.08812370  0.67299519    -0.06300
C1766       C  0.70411212  0.03850914  0.69596602    -0.07100
C1767       C  0.69615552  0.09434202  0.72555067    -0.07000
C1768       C  0.70405103  0.09388695  0.65281648    -0.06300
C1769       C  0.67257662  0.04362575  0.67586029    -0.07100
C1770       C  0.66590130  0.10110341  0.70569658    -0.07000
C1771       C  0.71914931  0.10458131  0.62172652    -0.32400
N1772       N  0.75614209  0.11077160  0.62521412     0.14100
C1773       C  0.76530496  0.09704542  0.65518536    -0.32400
H1774       H  0.79278441  0.09146754  0.66280362     0.16100
C1775       C  0.65662255  0.00988502  0.67048706    -0.31400
N1776       N  0.67668839  0.48636007  0.68743905     0.12800
C1777       C  0.70547509  0.00383243  0.70276333    -0.31400
C1778       C  0.63657771  0.10556965  0.72902640    -0.31600
N1779       N  0.64787564  0.10317855  0.76204280     0.13400
H1780       H  0.60842622  0.10470001  0.72172093     0.16000
C1781       C  0.68354567  0.09390913  0.75965496    -0.31700
H1782       H  0.69833149  0.08330737  0.78045735     0.16000
H1783       H  0.72647363  0.49136890  0.71683500     0.16000
H1784       H  0.70441404  0.10582500  0.59779164     0.16100
H1785       H  0.63299283  0.50260532  0.65479127     0.16000
C1786       C  0.83214142  0.13904225  0.56155141     0.86300
C1787       C  0.84889739  0.16635778  0.58902605    -0.53900
C1788       C  0.82442146  0.18266296  0.61216028     0.09300
C1789       C  0.78301029  0.17145847  0.60296361     0.20200
C1790       C  0.80749099  0.11428437  0.58238180    -0.54600
C1791       C  0.78133270  0.13051047  0.60359564     0.09400
C1792       C  0.80278893  0.15946142  0.54206481    -0.54100
C1793       C  0.77681643  0.17701282  0.56311454     0.09900
H1794       H  0.87839767  0.17021021  0.59145659     0.14500
H1795       H  0.76265034  0.18512050  0.62114634     0.00200
H1796       H  0.81016091  0.08584964  0.58003156     0.14800
H1797       H  0.79937241  0.15675713  0.51421821     0.14600
C1798       C  0.59332261  0.13429881  0.84501061     0.86300
C1799       C  0.57061203  0.15704744  0.82162562    -0.53900
C1800       C  0.59123971  0.17224372  0.79689075     0.09300
C1801       C  0.63174611  0.16227205  0.79600818     0.20200
C1802       C  0.61173881  0.10732888  0.81754988    -0.54600
C1803       C  0.63150144  0.12228104  0.79214109     0.09400
C1804       C  0.62566807  0.15883576  0.85887662    -0.54100
C1805       C  0.64632914  0.17292739  0.83274234     0.09900
H1806       H  0.54089947  0.15690322  0.82022050     0.14500
H1807       H  0.64747958  0.17364320  0.77428441     0.00200
H1808       H  0.60812976  0.07901366  0.81736469     0.14800
H1809       H  0.63158786  0.16370784  0.88638040     0.14600
C1810       C  0.83495937  0.23899977  0.71362811     0.29900
C1811       C  0.83591349  0.20382179  0.64768776     0.29900
C1812       C  0.82007985  0.25893142  0.68399436    -0.06300
C1813       C  0.87459892  0.23014541  0.69794907    -0.07100
C1814       C  0.81759380  0.20257327  0.71059747    -0.07000
C1815       C  0.82104962  0.24133407  0.65037069    -0.06300
C1816       C  0.87538820  0.21145816  0.66394839    -0.07100
C1817       C  0.81786975  0.18489468  0.67721323    -0.07000
C1818       C  0.83204784  0.26680994  0.62818947    -0.32400
N1819       N  0.83458720  0.29908613  0.64523385     0.14100
C1820       C  0.82959015  0.29352094  0.67932004    -0.32400
H1821       H  0.83892576  0.31201310  0.70009841     0.16100
C1822       C  0.91260898  0.20588730  0.65538033    -0.31400
N1823       N  0.93369398  0.22074694  0.68193237     0.12800
C1824       C  0.91088056  0.23557665  0.70765839    -0.31400
C1825       C  0.82449957  0.15003454  0.68211859    -0.31600
N1826       N  0.82739283  0.14516234  0.71629795     0.13400
H1827       H  0.83367645  0.13095759  0.66156627     0.16000
C1828       C  0.82459339  0.17725782  0.73333963    -0.31700
H1829       H  0.83531820  0.18303422  0.75921858     0.16000
H1830       H  0.92020494  0.24875667  0.73190019     0.16000
H1831       H  0.84402249  0.26125968  0.60228131     0.16100
H1832       H  0.92361442  0.19245680  0.63155231     0.16000
C1833       C  0.80719151  0.37549831  0.59183286     0.86300
C1834       C  0.79015754  0.34584371  0.56768469    -0.53900
C1835       C  0.77395650  0.32048450  0.58509623     0.09300
C1836       C  0.77608724  0.32567435  0.62465751     0.20200
C1837       C  0.77642294  0.38834667  0.61813977    -0.54600
C1838       C  0.76007205  0.36215664  0.63530773     0.09400
C1839       C  0.83449095  0.35420065  0.61334293    -0.54100
C1840       C  0.81710185  0.32831784  0.63089026     0.09900
H1841       H  0.79191900  0.34414341  0.53926718     0.14500
H1842       H  0.76244864  0.30385683  0.63778879     0.00200
H1843       H  0.76811712  0.41533901  0.62120457     0.14800
H1844       H  0.86428586  0.35583233  0.61126607     0.14600
C1845       C  0.81250083  0.06209334  0.76485902     0.86300
C1846       C  0.79351808  0.08646054  0.79396145    -0.53900
C1847       C  0.77337477  0.11199983  0.78166444     0.09300
C1848       C  0.77347884  0.11168094  0.74207832     0.20200
C1849       C  0.78158577  0.04844316  0.73999985    -0.54600
C1850       C  0.76044575  0.07460681  0.72909451     0.09400
C1851       C  0.83525848  0.08879801  0.74380211    -0.54100
C1852       C  0.81389469  0.11422484  0.73157030     0.09900
H1853       H  0.79737359  0.08490774  0.82182319     0.14500
H1854       H  0.75707790  0.13345624  0.73280853     0.00200
H1855       H  0.77709854  0.02086005  0.73242845     0.14800
H1856       H  0.86494468  0.09041314  0.74162416     0.14600
C1857       C  0.72622108  0.36414745  0.65943087     0.29900
C1858       C  0.66561603  0.35196275  0.70052405     0.29900
C1859       C  0.73325192  0.34822202  0.69383278    -0.06300
C1860       C  0.70383106  0.39731650  0.67115494    -0.07100
C1861       C  0.69641472  0.34079228  0.64257599    -0.07000
C1862       C  0.70296764  0.34239946  0.71470547    -0.06300
C1863       C  0.67225010  0.39193998  0.69265745    -0.07100
C1864       C  0.66550266  0.33429387  0.66344038    -0.07000
C1865       C  0.71599065  0.33010837  0.74491052    -0.32400
N1866       N  0.75266712  0.32345801  0.74067087     0.14100
C1867       C  0.76363277  0.33796561  0.71095665    -0.32400
H1868       H  0.79152368  0.34376807  0.70349222     0.16100
C1869       C  0.65635058  0.42543132  0.69874092    -0.31400
N1870       N  0.67662381  0.44922268  0.68109179     0.12800
C1871       C  0.70545137  0.43217884  0.66464667    -0.31400
C1872       C  0.63648122  0.33096433  0.64094467    -0.31600
N1873       N  0.64861171  0.33274211  0.60756649     0.13400
H1874       H  0.60814458  0.33397865  0.64900787     0.16000
C1875       C  0.68456041  0.34109618  0.60886801    -0.31700
H1876       H  0.70018333  0.35111818  0.58744755     0.16000
H1877       H  0.72673479  0.44526894  0.65059811     0.16000
H1878       H  0.69999278  0.32737707  0.76856386     0.16100
H1879       H  0.63258847  0.43230571  0.71535060     0.16000
C1880       C  0.59400521  0.29644302  0.52924674     0.86300
C1881       C  0.57374372  0.27127050  0.55331952    -0.53900
C1882       C  0.59503100  0.26044357  0.57878818     0.09300
C1883       C  0.63484763  0.27197125  0.57647644     0.20200
C1884       C  0.61311216  0.32486607  0.55384746    -0.54600
C1885       C  0.63338419  0.31181455  0.57871869     0.09400
C1886       C  0.62670162  0.27273943  0.51360614    -0.54100
C1887       C  0.64815458  0.26001543  0.53886311     0.09900
H1888       H  0.54444400  0.26520619  0.55233286     0.14500
H1889       H  0.65127697  0.26203788  0.59768605     0.00200
H1890       H  0.60889992  0.35296009  0.55305485     0.14800
H1891       H  0.63115432  0.26367300  0.48665346     0.14600
C1892       C  0.82725447  0.29942714  0.80289393     0.86300
C1893       C  0.84651745  0.27626707  0.77275521    -0.53900
C1894       C  0.82325068  0.25834946  0.75013436     0.09300
C1895       C  0.78151232  0.26414550  0.76189444     0.20200
C1896       C  0.79940487  0.32242646  0.78517771    -0.54600
C1897       C  0.77623530  0.30479489  0.76305964     0.09400
C1898       C  0.80131609  0.27457476  0.82237435    -0.54100
C1899       C  0.77663853  0.25576892  0.80181405     0.09900
H1900       H  0.87613109  0.27653427  0.76847401     0.14500
H1901       H  0.76275085  0.24905008  0.74381189     0.00200
H1902       H  0.79850324  0.35093033  0.78912791     0.14800
H1903       H  0.79905740  0.27536617  0.85046265     0.14600
C1904       C  0.68221755  0.23618208  0.53516077     0.29900
C1905       C  0.74318203  0.19739617  0.54911655     0.29900
C1906       C  0.67460660  0.20018074  0.54864863    -0.06300
C1907       C  0.70660310  0.22638438  0.50320250    -0.07100
C1908       C  0.71105593  0.25378526  0.55908977    -0.07000
C1909       C  0.70494568  0.18267291  0.55979703    -0.06300
C1910       C  0.73794414  0.20562472  0.50880127    -0.07100
C1911       C  0.74158934  0.23399586  0.56677496    -0.07000
C1912       C  0.69053867  0.16726708  0.58880379    -0.32400
N1913       N  0.65320628  0.16519422  0.58773122     0.14100
C1914       C  0.64333343  0.18567542  0.56243115    -0.32400
H1915       H  0.61553885  0.19097682  0.55511185     0.16100
C1916       C  0.75492718  0.20118155  0.97524626    -0.31400
N1917       N  0.73597369  0.21968147  0.95205467     0.12800
C1918       C  0.70682852  0.23510715  0.96948089    -0.31400
C1919       C  0.77018457  0.25715556  0.57149929    -0.31600
N1920       N  0.75823629  0.28985148  0.56818686     0.13400
H1921       H  0.79870553  0.24982527  0.57061986     0.16000
C1922       C  0.72307472  0.28780513  0.55859424    -0.31700
H1923       H  0.70849596  0.30873520  0.54766541     0.16000
H1924       H  0.68596548  0.24984266  0.95744111     0.16000
H1925       H  0.70559877  0.16359594  0.61178791     0.16100
H1926       H  0.77856340  0.18498651  0.96790961     0.16000
C1927       C  0.68174109  0.19568118  0.83429300     0.29900
C1928       C  0.74362171  0.23415249  0.81739522     0.29900
C1929       C  0.67530839  0.23083881  0.81943747    -0.06300
C1930       C  0.70552435  0.20685662  0.86543161    -0.07100
C1931       C  0.71097296  0.17708605  0.81002695    -0.07000
C1932       C  0.70596008  0.24794490  0.80701577    -0.06300
C1933       C  0.73742860  0.22731100  0.85822163    -0.07100
C1934       C  0.74243388  0.19673115  0.80149806    -0.07000
C1935       C  0.69264110  0.26388700  0.77865948    -0.32400
N1936       N  0.65535783  0.26508894  0.78015291     0.14100
C1937       C  0.64476304  0.24505234  0.80618560    -0.32400
H1938       H  0.61700038  0.24110746  0.81570369     0.16100
C1939       C  0.75500555  0.23142841  0.89082497    -0.31400
N1940       N  0.73559716  0.21335992  0.91509326     0.12800
C1941       C  0.70577019  0.19837719  0.89930124    -0.31400
C1942       C  0.77107112  0.17362661  0.79935654    -0.31600
N1943       N  0.75867715  0.14085044  0.80308699     0.13400
H1944       H  0.79974563  0.18103432  0.80186142     0.16000
C1945       C  0.72265131  0.14316105  0.81170804    -0.31700
H1946       H  0.70698771  0.12255288  0.82313418     0.16000
H1947       H  0.68471680  0.18373556  0.91248451     0.16000
H1948       H  0.70839266  0.26981521  0.75611629     0.16100
H1949       H  0.77961403  0.24670873  0.89676282     0.16000
O1950       O  0.99099974  0.98369431  0.51150808    -0.80300
O1951       O  0.91926303  0.98504317  0.86683064    -0.80300
O1952       O  0.50134924  0.01971182  0.93494614    -0.80300
O1953       O  0.92418292  0.02760435  0.94926252    -0.80300
O1954       O  0.99421239  0.00297634  0.87923765    -0.80400
O1955       O  0.92297794  0.00308793  0.49905150    -0.80300
O1956       O  0.87262607  0.00403610  0.90168209    -0.80300
O1957       O  0.54044352  0.49053171  0.97891900    -0.80300
C1958       C  0.52896174  0.99594638  0.00384550     1.09400
C1959       C  0.88799676  0.00070216  0.87147169     1.09300
C1960       C  0.50575985  0.02532268  0.90320372     1.09400
C1961       C  0.91939149  0.03033572  0.98221077     1.09300
O1962       O  0.90610787  0.42852466  0.47537197    -0.80300
O1963       O  0.00268258  0.42436341  0.88769553    -0.80400
O1964       O  0.52581799  0.42169715  0.95513579    -0.80300
O1965       O  0.88739623  0.43462906  0.90435630    -0.80300
O1966       O  0.93617925  0.41287515  0.87662391    -0.80300
O1967       O  0.97480010  0.41061838  0.48500723    -0.80300
O1968       O  0.87325037  0.47265242  0.96597124    -0.80200
O1969       O  0.54688310  0.46135148  0.89833129    -0.80300
Co1970     Co  0.95040349  0.45579435  0.98774216     1.51500
Co1971     Co  0.96359843  0.45647074  0.88130320     1.51700
Co1972     Co  0.51312008  0.46919337  0.94002794     1.51600
Co1973     Co  0.90924816  0.48090051  0.92539180     1.51500
O1974       O  0.95738569  0.45918625  0.93484952    -1.42200
C1975       C  0.87781815  0.44602852  0.98316578     1.07700
C1976       C  0.53453518  0.43651489  0.87898313     1.09400
C1977       C  0.50571298  0.40091067  0.97190259     1.09400
C1978       C  0.90299984  0.41022836  0.88520407     1.09300
C1979       C  0.86775489  0.35395568  0.80914851    -0.02000
C1980       C  0.85420425  0.32351902  0.82432804     0.07700
C1981       C  0.86321440  0.31944970  0.85969383    -0.02100
C1982       C  0.87710233  0.34855160  0.88091554    -0.02100
C1983       C  0.88254145  0.38121240  0.86672610     0.07800
C1984       C  0.87874412  0.38332742  0.83051470    -0.02300
Br1985     Br  0.88933809  0.42664403  0.80925844    -0.00900
Br1986     Br  0.87238082  0.35604941  0.75879353    -0.00900
Br1987     Br  0.89110770  0.34342566  0.92847031    -0.00900
Br1988     Br  0.86673880  0.27316055  0.87632546    -0.00900
C1989       C  0.54743208  0.34855802  0.45870647    -0.02000
C1990       C  0.51960535  0.36570036  0.47952530     0.07700
C1991       C  0.50948985  0.35185058  0.51119677    -0.02100
C1992       C  0.53484224  0.33183523  0.52763063    -0.02100
C1993       C  0.56581288  0.31602020  0.50836243     0.07800
C1994       C  0.57039640  0.32350241  0.47255366    -0.02300
Br1995     Br  0.60949954  0.30483358  0.44187522    -0.00900
Br1996     Br  0.55054936  0.35606404  0.90968871    -0.00900
Br1997     Br  0.52857460  0.33417525  0.57846823    -0.00900
Br1998     Br  0.46041522  0.35770006  0.53192150    -0.00900
C1999       C  0.88929113  0.02331691  0.81139319    -0.02000
C2000       C  0.86902331  0.01130436  0.84032724     0.07700
C2001       C  0.83102634  0.00383999  0.83666713    -0.02100
C2002       C  0.81248899  0.01498656  0.80785669    -0.02100
C2003       C  0.83219983  0.03320505  0.78230347     0.07800
C2004       C  0.87082989  0.03086478  0.78116410    -0.02300
Br2005     Br  0.89738043  0.02836176  0.73679014    -0.00900
Br2006     Br  0.94183827  0.03163711  0.81248107    -0.00900
Br2007     Br  0.75967809  0.50762452  0.80559089    -0.00900
Br2008     Br  0.80435574  0.47714875  0.86996201    -0.00900
C2009       C  0.80046267  0.41463976  0.54083174    -0.02000
C2010       C  0.82122961  0.40485241  0.56970346     0.07700
C2011       C  0.85614329  0.42026336  0.57462611    -0.02100
C2012       C  0.87426313  0.43518012  0.54658709    -0.02100
C2013       C  0.85609722  0.43795878  0.51442420     0.07800
C2014       C  0.81849112  0.42938228  0.51243241    -0.02300
Br2015     Br  0.79336108  0.43267099  0.96905106    -0.00900
Br2016     Br  0.74752350  0.40766703  0.53932449    -0.00900
Br2017     Br  0.92479527  0.44919128  0.55322195    -0.00900
Br2018     Br  0.87665407  0.42645367  0.62088927    -0.00900
C2019       C  0.58827301  0.08630829  0.88741423    -0.02000
C2020       C  0.57120114  0.11441737  0.87242671     0.07700
C2021       C  0.53253279  0.11787803  0.87808617    -0.02100
C2022       C  0.51102215  0.08856274  0.88704948    -0.02100
C2023       C  0.52805678  0.05695467  0.89423302     0.07800
C2024       C  0.56700447  0.05756644  0.89763602    -0.02300
Br2025     Br  0.59294605  0.52081896  0.91783249    -0.00900
Br2026     Br  0.64116224  0.08682639  0.89359161    -0.00900
Br2027     Br  0.95875778  0.09244879  0.89157859    -0.00900
Br2028     Br  0.51042876  0.16395933  0.88338197    -0.00900
C2029       C  0.90749401  0.06908555  0.53825546    -0.02000
C2030       C  0.90465193  0.06365986  0.50135733     0.07700
C2031       C  0.88469444  0.08894866  0.48422950    -0.02100
C2032       C  0.86774823  0.11769853  0.50361336    -0.02100
C2033       C  0.86247958  0.11741664  0.54031780     0.07800
C2034       C  0.88540905  0.09440797  0.55762398    -0.02300
Br2035     Br  0.88751735  0.09668620  0.60831010    -0.00900
Br2036     Br  0.94185852  0.54253093  0.56334932    -0.00900
Br2037     Br  0.86184023  0.16018433  0.48007614    -0.00900
Br2038     Br  0.87544595  0.08389779  0.93479767    -0.00900
C2039       C  0.54155485  0.38602043  0.79234129    -0.02000
C2040       C  0.57436886  0.36723740  0.79650566     0.07700
C2041       C  0.59999791  0.38235556  0.82211412    -0.02100
C2042       C  0.58814587  0.40747803  0.84851356    -0.02100
C2043       C  0.55269227  0.42074773  0.84734862     0.07800
C2044       C  0.53131499  0.41313475  0.81752228    -0.02300
Br2045     Br  0.98974383  0.44336735  0.81125004    -0.00900
Br2046     Br  0.51253096  0.37881983  0.75085999    -0.00900
Br2047     Br  0.61983448  0.42292196  0.88690277    -0.00900
Br2048     Br  0.65275193  0.37317267  0.82077043    -0.00900
C2049       C  0.54430802  0.01051567  0.56777711    -0.02000
C2050       C  0.53712700  0.02169928  0.53460178     0.07700
C2051       C  0.53466897  0.05806722  0.53036093    -0.02100
C2052       C  0.54066203  0.08272947  0.55868649    -0.02100
C2053       C  0.55477940  0.07173731  0.58983150     0.07800
C2054       C  0.55128035  0.03556102  0.59582812    -0.02300
Br2055     Br  0.54751537  0.02096755  0.64293415    -0.00900
Br2056     Br  0.04577418  0.46087658  0.57437192    -0.00900
Br2057     Br  0.52681034  0.13128033  0.55581025    -0.00900
Br2058     Br  0.52421513  0.07565268  0.98565729    -0.00900
C2059       C  0.58046113  0.59676769  0.11137556     0.86300
C2060       C  0.60527463  0.61933409  0.08812131    -0.53900
C2061       C  0.62883704  0.64180635  0.10593480     0.09300
C2062       C  0.62594581  0.63910603  0.14584405     0.20200
C2063       C  0.60908729  0.57772581  0.13172663    -0.54600
C2064       C  0.63317440  0.59872767  0.14967992     0.09400
C2065       C  0.56066974  0.62382787  0.13760438    -0.54100
C2066       C  0.58367102  0.64749095  0.15497858     0.09900
H2067       H  0.60499716  0.61727867  0.05972093     0.14500
H2068       H  0.64552976  0.65708699  0.16036517     0.00200
H2069       H  0.61343621  0.54974464  0.12842883     0.14800
H2070       H  0.53091957  0.62627769  0.13904194     0.14600
C2071       C  0.57105681  0.68421156  0.17310813     0.29900
C2072       C  0.57053105  0.75230794  0.20465450     0.29900
C2073       C  0.58936582  0.71231853  0.15280342    -0.06300
C2074       C  0.53143581  0.70104122  0.17944306    -0.07100
C2075       C  0.58581169  0.68924430  0.20965503    -0.07000
C2076       C  0.58834982  0.74691130  0.16822312    -0.06300
C2077       C  0.53119590  0.73606711  0.19633030    -0.07100
C2078       C  0.58601783  0.72358789  0.22553544    -0.07000
C2079       C  0.58142525  0.76739377  0.14105391    -0.32400
N2080       N  0.58076510  0.74768778  0.11035920     0.14100
C2081       C  0.58447459  0.71425223  0.11756289    -0.32400
H2082       H  0.57716434  0.69233204  0.09945730     0.16100
C2083       C  0.99460786  0.74653789  0.19849273    -0.31400
N2084       N  0.97294532  0.72019294  0.18342583     0.12800
C2085       C  0.99495698  0.69267209  0.17160637    -0.31400
C2086       C  0.57933895  0.72048173  0.26073497    -0.31600
N2087       N  0.57608107  0.68641616  0.26712973     0.13400
H2088       H  0.57230754  0.74196614  0.27972801     0.16000
C2089       C  0.57747376  0.66778586  0.23594160    -0.31700
H2090       H  0.56678042  0.64143724  0.23226984     0.16000
H2091       H  0.98504607  0.66834141  0.15854069     0.16000
H2092       H  0.56975274  0.79325169  0.14417932     0.16100
H2093       H  0.98456532  0.77173626  0.20951098     0.16000
C2094       C  0.58791605  0.83845651  0.26912388     0.86300
C2095       C  0.61111005  0.81227344  0.28719327    -0.53900
C2096       C  0.63256986  0.79103478  0.26575263     0.09300
C2097       C  0.62673278  0.79610615  0.22659882     0.20200
C2098       C  0.61308495  0.85728783  0.24416037    -0.54600
C2099       C  0.63413182  0.83651810  0.22245841     0.09400
C2100       C  0.56347066  0.81226772  0.24516034    -0.54100
C2101       C  0.58382570  0.78900460  0.22265225     0.09900
H2102       H  0.61025287  0.81037471  0.31535031     0.14500
H2103       H  0.64439173  0.77837871  0.20911394     0.00200
H2104       H  0.61596752  0.88566355  0.24575691     0.14800
H2105       H  0.53405200  0.80876013  0.24934010     0.14600
C2106       C  0.72629134  0.57183733  0.20723538     0.29900
C2107       C  0.66612353  0.58366882  0.16845770     0.29900
C2108       C  0.73383832  0.58813214  0.17298407    -0.06300
C2109       C  0.70415702  0.53850838  0.19596604    -0.07100
C2110       C  0.69621236  0.59434803  0.22554733    -0.07000
C2111       C  0.70408597  0.59389676  0.15281157    -0.06300
C2112       C  0.67261440  0.54362196  0.17587304    -0.07100
C2113       C  0.66594963  0.60110358  0.20570342    -0.07000
C2114       C  0.71919158  0.60458272  0.12171374    -0.32400
N2115       N  0.75619292  0.61075592  0.12518842     0.14100
C2116       C  0.76534704  0.59704200  0.15516788    -0.32400
H2117       H  0.79282646  0.59145854  0.16278604     0.16100
C2118       C  0.65665228  0.50987683  0.17052198    -0.31400
N2119       N  0.67672300  0.98635477  0.18746428     0.12800
C2120       C  0.70551458  0.50383091  0.20277860    -0.31400
C2121       C  0.63663433  0.60556438  0.22903919    -0.31600
N2122       N  0.64794586  0.60317724  0.26204822     0.13400
H2123       H  0.60847080  0.60469365  0.22174288     0.16000
C2124       C  0.68361685  0.59391659  0.25965380    -0.31700
H2125       H  0.69841109  0.58332089  0.28045411     0.16000
H2126       H  0.72652560  0.99137922  0.21683630     0.16000
H2127       H  0.70445610  0.60582171  0.09777874     0.16100
H2128       H  0.63299685  0.00257832  0.15484333     0.16000
C2129       C  0.83223574  0.63887715  0.06143847     0.86300
C2130       C  0.84899663  0.66622768  0.08892734    -0.53900
C2131       C  0.82451740  0.68259650  0.11206374     0.09300
C2132       C  0.78310368  0.67138988  0.10287692     0.20200
C2133       C  0.80756744  0.61418417  0.08233565    -0.54600
C2134       C  0.78140916  0.63044942  0.10354190     0.09400
C2135       C  0.80284161  0.65933889  0.04197732    -0.54100
C2136       C  0.77686711  0.67692629  0.06303867     0.09900
H2137       H  0.87849829  0.67006311  0.09135941     0.14500
H2138       H  0.76274974  0.68506170  0.12105982     0.00200
H2139       H  0.81022095  0.58574831  0.08002666     0.14800
H2140       H  0.79942356  0.65665691  0.01412783     0.14600
C2141       C  0.59352732  0.63443732  0.34500696     0.86300
C2142       C  0.57078664  0.65717128  0.32166331    -0.53900
C2143       C  0.59139280  0.67231472  0.29690154     0.09300
C2144       C  0.63189805  0.66231254  0.29597798     0.20200
C2145       C  0.61185438  0.60740592  0.31755778    -0.54600
C2146       C  0.63160774  0.62231873  0.29213114     0.09400
C2147       C  0.62587122  0.65892142  0.35885434    -0.54100
C2148       C  0.64651180  0.67296201  0.33270969     0.09900
H2149       H  0.54107174  0.65705154  0.32029547     0.14500
H2150       H  0.64762514  0.67366646  0.27424089     0.00200
H2151       H  0.60820331  0.57909664  0.31739873     0.14800
H2152       H  0.63180066  0.66379956  0.38635496     0.14600
C2153       C  0.83501087  0.73901696  0.21359876     0.29900
C2154       C  0.83597349  0.70380998  0.14761858     0.29900
C2155       C  0.82012684  0.75893146  0.18395447    -0.06300
C2156       C  0.87463566  0.73015376  0.19790957    -0.07100
C2157       C  0.81763149  0.70258713  0.21054852    -0.07000
C2158       C  0.82109909  0.74132895  0.15031772    -0.06300
C2159       C  0.87543144  0.71146211  0.16390532    -0.07100
C2160       C  0.81791805  0.68490067  0.17715284    -0.07000
C2161       C  0.83209224  0.76681585  0.12814854    -0.32400
N2162       N  0.83462235  0.79908771  0.14520441     0.14100
C2163       C  0.82963194  0.79352052  0.17928861    -0.32400
H2164       H  0.83897207  0.81201464  0.20007236     0.16100
C2165       C  0.91264993  0.70589675  0.15535070    -0.31400
N2166       N  0.93372279  0.72075707  0.18191094     0.12800
C2167       C  0.91090806  0.73558302  0.20763286    -0.31400
C2168       C  0.82454196  0.65004035  0.18205612    -0.31600
N2169       N  0.82742442  0.64517319  0.21623589     0.13400
H2170       H  0.83372678  0.63095929  0.16150469     0.16000
C2171       C  0.82461881  0.67726583  0.23328376    -0.31700
H2172       H  0.83534301  0.68303778  0.25916100     0.16000
H2173       H  0.92022573  0.74874717  0.23188523     0.16000
H2174       H  0.84405471  0.76127990  0.10222989     0.16100
H2175       H  0.92366243  0.69246050  0.13152875     0.16000
C2176       C  0.80714870  0.87545453  0.09180912     0.86300
C2177       C  0.79009422  0.84578462  0.06769076    -0.53900
C2178       C  0.77391268  0.82043732  0.08513425     0.09300
C2179       C  0.77608606  0.82565469  0.12468987     0.20200
C2180       C  0.77640223  0.88832053  0.11812898    -0.54600
C2181       C  0.76007351  0.86214134  0.13532729     0.09400
C2182       C  0.83447345  0.85417856  0.11330321    -0.54100
C2183       C  0.81710912  0.82830905  0.13087974     0.09900
H2184       H  0.79183170  0.84406205  0.03927226     0.14500
H2185       H  0.76246590  0.80384515  0.13784820     0.00200
H2186       H  0.76808994  0.91530664  0.12117350     0.14800
H2187       H  0.86426702  0.85581594  0.11119572     0.14600
C2188       C  0.81259917  0.56208466  0.26476463     0.86300
C2189       C  0.79364517  0.58643906  0.29389993    -0.53900
C2190       C  0.77348663  0.61199042  0.28163822     0.09300
C2191       C  0.77354162  0.61168389  0.24205505     0.20200
C2192       C  0.78166024  0.54844490  0.23993190    -0.54600
C2193       C  0.76049982  0.57461214  0.22906903     0.09400
C2194       C  0.83532807  0.58879650  0.24369590    -0.54100
C2195       C  0.81394593  0.61423074  0.23150590     0.09900
H2196       H  0.79753405  0.58486976  0.32175446     0.14500
H2197       H  0.75712743  0.63346307  0.23281069     0.00200
H2198       H  0.77718030  0.52086544  0.23233481     0.14800
H2199       H  0.86501121  0.59040791  0.24147499     0.14600
C2200       C  0.72623358  0.86414144  0.15945884     0.29900
C2201       C  0.66564742  0.85195887  0.20057234     0.29900
C2202       C  0.73328095  0.84822703  0.19386119    -0.06300
C2203       C  0.70384609  0.89730949  0.17118016    -0.07100
C2204       C  0.69642615  0.84078094  0.14261904    -0.07000
C2205       C  0.70300724  0.84240585  0.21474814    -0.06300
C2206       C  0.67227198  0.89193635  0.19269229    -0.07100
C2207       C  0.66552704  0.83427518  0.16349500    -0.07000
C2208       C  0.71605280  0.83012022  0.24494903    -0.32400
N2209       N  0.75273228  0.82347501  0.24069066     0.14100
C2210       C  0.76367063  0.83796997  0.21096590    -0.32400
H2211       H  0.79157646  0.84376547  0.20347347     0.16100
C2212       C  0.65638135  0.92543192  0.19878052    -0.31400
N2213       N  0.67665576  0.94921819  0.18112722     0.12800
C2214       C  0.70547495  0.93217103  0.16467265    -0.31400
C2215       C  0.63649976  0.83090799  0.14100871    -0.31600
N2216       N  0.64861794  0.83268944  0.10762672     0.13400
H2217       H  0.60816362  0.83389318  0.14908093     0.16000
C2218       C  0.68455900  0.84107333  0.10891516    -0.31700
H2219       H  0.70016807  0.85109842  0.08748683     0.16000
H2220       H  0.72675540  0.94525634  0.15062500     0.16000
H2221       H  0.70007093  0.82739357  0.26861095     0.16100
H2222       H  0.63262689  0.93231375  0.21539881     0.16000
C2223       C  0.59398536  0.79652806  0.02927646     0.86300
C2224       C  0.57369384  0.77134459  0.05334669    -0.53900
C2225       C  0.59496223  0.76046902  0.07881251     0.09300
C2226       C  0.63479046  0.77195133  0.07649197     0.20200
C2227       C  0.61312212  0.82489969  0.05390044    -0.54600
C2228       C  0.63337266  0.81179961  0.07876172     0.09400
C2229       C  0.62662810  0.77276335  0.01361459    -0.54100
C2230       C  0.64808427  0.75999214  0.03886849     0.09900
H2231       H  0.54439292  0.76529063  0.05234883     0.14500
H2232       H  0.65120936  0.76198921  0.09769364     0.00200
H2233       H  0.60893795  0.85300047  0.05313350     0.14800
H2234       H  0.63098042  0.76371905  0.98662530     0.14600
C2235       C  0.82739348  0.79957794  0.30292182     0.86300
C2236       C  0.84664124  0.77639396  0.27274666    -0.53900
C2237       C  0.82336044  0.75841460  0.25013790     0.09300
C2238       C  0.78163597  0.76420712  0.26192619     0.20200
C2239       C  0.79952111  0.82252099  0.28517488    -0.54600
C2240       C  0.77633633  0.80485120  0.26308157     0.09400
C2241       C  0.80145058  0.77468336  0.32239327    -0.54100
C2242       C  0.77678055  0.75583381  0.30183628     0.09900
H2243       H  0.87625010  0.77668561  0.26844084     0.14500
H2244       H  0.76286327  0.74910306  0.24386086     0.00200
H2245       H  0.79860643  0.85102536  0.28909691     0.14800
H2246       H  0.79919622  0.77546814  0.35048330     0.14600
C2247       C  0.68215784  0.73613682  0.03517917     0.29900
C2248       C  0.74316963  0.69733090  0.04909086     0.29900
C2249       C  0.67456702  0.70013304  0.04866957    -0.06300
C2250       C  0.70652738  0.72633942  0.00321648    -0.07100
C2251       C  0.71101057  0.75372355  0.05910553    -0.07000
C2252       C  0.70492375  0.68261594  0.05980216    -0.06300
C2253       C  0.73788105  0.70557993  0.00878780    -0.07100
C2254       C  0.74155917  0.73393027  0.06676834    -0.07000
C2255       C  0.69052477  0.66725896  0.08884619    -0.32400
N2256       N  0.65318784  0.66520208  0.08780235     0.14100
C2257       C  0.64330188  0.68566076  0.06249240    -0.32400
H2258       H  0.61550464  0.69096421  0.05518538     0.16100
C2259       C  0.75503314  0.70121416  0.47525272    -0.31400
N2260       N  0.73610576  0.71971692  0.45204715     0.12800
C2261       C  0.70695410  0.73515445  0.46945274    -0.31400
C2262       C  0.77013608  0.75709873  0.07153816    -0.31600
N2263       N  0.75817154  0.78979579  0.06826051     0.13400
H2264       H  0.79866810  0.74977757  0.07067945     0.16000
C2265       C  0.72301487  0.78774957  0.05865013    -0.31700
H2266       H  0.70843339  0.80868567  0.04773532     0.16000
H2267       H  0.68610708  0.74989304  0.45739406     0.16000
H2268       H  0.70560260  0.66360701  0.11182997     0.16100
H2269       H  0.77866482  0.68500956  0.46793126     0.16000
C2270       C  0.68190200  0.69569066  0.33428174     0.29900
C2271       C  0.74376377  0.73417407  0.31739522     0.29900
C2272       C  0.67544377  0.73084684  0.31945138    -0.06300
C2273       C  0.70567913  0.70685403  0.36542528    -0.07100
C2274       C  0.71112348  0.67709455  0.31001557    -0.07000
C2275       C  0.70608254  0.74795694  0.30702048    -0.06300
C2276       C  0.73757279  0.72732076  0.35821750    -0.07100
C2277       C  0.74258424  0.69674064  0.30149176    -0.07000
C2278       C  0.69272308  0.76390534  0.27868173    -0.32400
N2279       N  0.65543607  0.76512113  0.28021792     0.14100
C2280       C  0.64487241  0.74507295  0.30624913    -0.32400
H2281       H  0.61711572  0.74111001  0.31577687     0.16100
C2282       C  0.75514407  0.73144957  0.39081983    -0.31400
N2283       N  0.73574527  0.71337429  0.41508837     0.12800
C2284       C  0.70592850  0.69837219  0.39929567    -0.31400
C2285       C  0.77121445  0.67362086  0.29936053    -0.31600
N2286       N  0.75881358  0.64084095  0.30308505     0.13400
H2287       H  0.79988731  0.68102216  0.30188299     0.16000
C2288       C  0.72278832  0.64316315  0.31170006    -0.31700
H2289       H  0.70711744  0.62256025  0.32312749     0.16000
H2290       H  0.68488462  0.68372452  0.41248246     0.16000
H2291       H  0.70845398  0.76982482  0.25611995     0.16100
H2292       H  0.77974169  0.74674814  0.39675730     0.16000
O2293       O  0.99584352  0.48365157  0.00603168    -0.80300
O2294       O  0.91935895  0.48513206  0.36676273    -0.80300
O2295       O  0.50668018  0.51830663  0.43385295    -0.80300
O2296       O  0.92420995  0.52766400  0.44924038    -0.80300
O2297       O  0.99429828  0.50300191  0.37925499    -0.80400
O2298       O  0.92482245  0.50307254  0.99820133    -0.80300
O2299       O  0.87270335  0.50414077  0.40158916    -0.80300
O2300       O  0.54045187  0.99051160  0.47892549    -0.80300
C2301       C  0.52293908  0.49647293  0.50716133     1.09400
C2302       C  0.88810114  0.50080530  0.37138815     1.09300
C2303       C  0.50709980  0.52551225  0.40262858     1.09400
C2304       C  0.91940294  0.53038740  0.48218706     1.09300
O2305       O  0.90615417  0.92844840  0.97540718    -0.80300
O2306       O  0.00376614  0.92534663  0.38751716    -0.80400
O2307       O  0.52579959  0.92173571  0.45522575    -0.80300
O2308       O  0.88766295  0.93531938  0.40445134    -0.80300
O2309       O  0.93686216  0.91288810  0.37866240    -0.80300
O2310       O  0.97487408  0.91059281  0.98500751    -0.80300
O2311       O  0.87303706  0.97280886  0.46599315    -0.80200
O2312       O  0.54690539  0.96134954  0.39837955    -0.80300
Co2313     Co  0.94930469  0.95601548  0.48904333     1.51500
Co2314     Co  0.96343112  0.95715834  0.38262212     1.51700
Co2315     Co  0.51311336  0.96920024  0.44004424     1.51600
Co2316     Co  0.90932537  0.98183232  0.42581249     1.51500
O2317       O  0.95779909  0.96189331  0.43728422    -1.42200
C2318       C  0.87768163  0.94581411  0.48266913     1.07700
C2319       C  0.53455670  0.93652905  0.37901545     1.09400
C2320       C  0.50567662  0.90095342  0.47197739     1.09400
C2321       C  0.90340178  0.91054162  0.38598317     1.09300
C2322       C  0.86789700  0.85427722  0.30938308    -0.02000
C2323       C  0.85432284  0.82378010  0.32445007     0.07700
C2324       C  0.86340843  0.81966037  0.35978905    -0.02100
C2325       C  0.87741004  0.84870650  0.38109076    -0.02100
C2326       C  0.88303265  0.88144915  0.36707532     0.07800
C2327       C  0.87911708  0.88360180  0.33084105    -0.02300
Br2328     Br  0.88957928  0.92690429  0.30964851    -0.00900
Br2329     Br  0.87251805  0.85634029  0.25900821    -0.00900
Br2330     Br  0.89121388  0.84340269  0.42864159    -0.00900
Br2331     Br  0.86693749  0.77330563  0.37626054    -0.00900
C2332       C  0.54723714  0.84883052  0.95880608    -0.02000
C2333       C  0.51880814  0.86528768  0.97944133     0.07700
C2334       C  0.50897531  0.85123733  0.01107885    -0.02100
C2335       C  0.53466825  0.83166948  0.02757897    -0.02100
C2336       C  0.56580899  0.81616288  0.00837692     0.07800
C2337       C  0.57055092  0.82401187  0.97268334    -0.02300
Br2338     Br  0.61035226  0.80616862  0.94236040    -0.00900
Br2339     Br  0.55038247  0.85616512  0.40973986    -0.00900
Br2340     Br  0.52852302  0.83422867  0.07842711    -0.00900
Br2341     Br  0.45991556  0.85661771  0.03195348    -0.00900
C2342       C  0.88941362  0.52341571  0.31130232    -0.02000
C2343       C  0.86914510  0.51138236  0.34022668     0.07700
C2344       C  0.83117342  0.50382354  0.33652666    -0.02100
C2345       C  0.81263010  0.51493917  0.30770886    -0.02100
C2346       C  0.83232323  0.53318898  0.28216911     0.07800
C2347       C  0.87095788  0.53090681  0.28105084    -0.02300
Br2348     Br  0.89752781  0.52840043  0.23668582    -0.00900
Br2349     Br  0.94194351  0.53182576  0.31243226    -0.00900
Br2350     Br  0.75978146  0.00752598  0.30541246    -0.00900
Br2351     Br  0.80436835  0.97695556  0.36979068    -0.00900
C2352       C  0.80045332  0.91452972  0.04076609    -0.02000
C2353       C  0.82118602  0.90479330  0.06967529     0.07700
C2354       C  0.85608208  0.92023143  0.07463450    -0.02100
C2355       C  0.87423331  0.93512565  0.04660331    -0.02100
C2356       C  0.85610827  0.93784714  0.01441311     0.07800
C2357       C  0.81851731  0.92922730  0.01236652    -0.02300
Br2358     Br  0.79321338  0.93288623  0.46912913    -0.00900
Br2359     Br  0.74751409  0.90757228  0.03922401    -0.00900
Br2360     Br  0.92475608  0.94916355  0.05327409    -0.00900
Br2361     Br  0.87652160  0.92647642  0.12092489    -0.00900
C2362       C  0.58870431  0.58667714  0.38750336    -0.02000
C2363       C  0.57151920  0.61469822  0.37245342     0.07700
C2364       C  0.53282101  0.61809280  0.37797956    -0.02100
C2365       C  0.51140578  0.58865691  0.38660811    -0.02100
C2366       C  0.52871902  0.55717156  0.39359595     0.07800
C2367       C  0.56751618  0.55799566  0.39772201    -0.02300
Br2368     Br  0.59300350  0.02078798  0.41789178    -0.00900
Br2369     Br  0.64158739  0.58692572  0.39344578    -0.00900
Br2370     Br  0.95887425  0.59251487  0.39170315    -0.00900
Br2371     Br  0.51057170  0.66410110  0.38345368    -0.00900
C2372       C  0.90769784  0.56870606  0.03783328    -0.02000
C2373       C  0.90501433  0.56333824  0.00084648     0.07700
C2374       C  0.88485521  0.58864911  0.98391009    -0.02100
C2375       C  0.86783412  0.61737529  0.00339114    -0.02100
C2376       C  0.86256752  0.61710495  0.04010380     0.07800
C2377       C  0.88553999  0.59403042  0.05729820    -0.02300
Br2378     Br  0.88778500  0.59647652  0.10799339    -0.00900
Br2379     Br  0.94190722  0.04254493  0.06335328    -0.00900
Br2380     Br  0.86194771  0.65994821  0.97999212    -0.00900
Br2381     Br  0.87548503  0.58397053  0.43478326    -0.00900
C2382       C  0.54162348  0.88608334  0.29235201    -0.02000
C2383       C  0.57442111  0.86728412  0.29654469     0.07700
C2384       C  0.60005065  0.88242033  0.32214108    -0.02100
C2385       C  0.58819586  0.90755647  0.34852711    -0.02100
C2386       C  0.55272219  0.92078542  0.34737675     0.07800
C2387       C  0.53135140  0.91317355  0.31754618    -0.02300
Br2388     Br  0.98956398  0.94238069  0.31031644    -0.00900
Br2389     Br  0.51270314  0.87896457  0.25079834    -0.00900
Br2390     Br  0.61991762  0.92309389  0.38685928    -0.00900
Br2391     Br  0.65280672  0.87324876  0.32078151    -0.00900
C2392       C  0.54424405  0.51050204  0.06779101    -0.02000
C2393       C  0.53709218  0.52170689  0.03461663     0.07700
C2394       C  0.53462029  0.55807982  0.03040503    -0.02100
C2395       C  0.54064315  0.58272479  0.05874461    -0.02100
C2396       C  0.55479427  0.57171207  0.08987044     0.07800
C2397       C  0.55128926  0.53552651  0.09584665    -0.02300
Br2398     Br  0.54763084  0.52088021  0.14293966    -0.00900
Br2399     Br  0.04545318  0.96085099  0.07439356    -0.00900
Br2400     Br  0.52676580  0.63127647  0.05592732    -0.00900
Br2401     Br  0.52345767  0.57543840  0.48624208    -0.00900
C2402       C  0.58043855  0.59681904  0.61134718     0.86300
C2403       C  0.60527275  0.61935220  0.58808070    -0.53900
C2404       C  0.62884040  0.64182400  0.60588484     0.09300
C2405       C  0.62594349  0.63914876  0.64580289     0.20200
C2406       C  0.60904373  0.57776665  0.63171070    -0.54600
C2407       C  0.63314123  0.59875832  0.64965756     0.09400
C2408       C  0.56066439  0.62391615  0.63756579    -0.54100
C2409       C  0.58367360  0.64758631  0.65494343     0.09900
H2410       H  0.60500495  0.61727810  0.55968004     0.14500
H2411       H  0.64554515  0.65711951  0.66031247     0.00200
H2412       H  0.61336169  0.54977922  0.62844119     0.14800
H2413       H  0.53091550  0.62637146  0.63900133     0.14600
C2414       C  0.57106342  0.68433964  0.67311669     0.29900
C2415       C  0.57043258  0.75253019  0.70479606     0.29900
C2416       C  0.58939103  0.71247208  0.65288950    -0.06300
C2417       C  0.53143687  0.70116506  0.67943096    -0.07100
C2418       C  0.58577578  0.68937492  0.70966452    -0.07000
C2419       C  0.58832778  0.74709914  0.66832866    -0.06300
C2420       C  0.53114689  0.73619173  0.69636418    -0.07100
C2421       C  0.58593367  0.72372642  0.72560086    -0.07000
C2422       C  0.58144300  0.76751391  0.64108936    -0.32400
N2423       N  0.58084535  0.74775848  0.61040789     0.14100
C2424       C  0.58457550  0.71434672  0.61763820    -0.32400
H2425       H  0.57730893  0.69240914  0.59953816     0.16100
C2426       C  0.99460015  0.74654582  0.69844003    -0.31400
N2427       N  0.97293458  0.72019065  0.68339774     0.12800
C2428       C  0.99496098  0.69267928  0.67156413    -0.31400
C2429       C  0.57924215  0.72053176  0.76077624    -0.31600
N2430       N  0.57599876  0.68644422  0.76710136     0.13400
H2431       H  0.57218947  0.74198078  0.77980424     0.16000
C2432       C  0.57743770  0.66785940  0.73589447    -0.31700
H2433       H  0.56676521  0.64151187  0.73216926     0.16000
H2434       H  0.98505010  0.66833686  0.65852381     0.16000
H2435       H  0.56974432  0.79336090  0.64415189     0.16100
H2436       H  0.98455284  0.77173506  0.70947959     0.16000
C2437       C  0.58783873  0.83905677  0.76979262     0.86300
C2438       C  0.61113278  0.81276302  0.78764599    -0.53900
C2439       C  0.63242232  0.79140902  0.76606990     0.09300
C2440       C  0.62646731  0.79648813  0.72694944     0.20200
C2441       C  0.61304013  0.85773143  0.74465116    -0.54600
C2442       C  0.63392511  0.83686215  0.72275130     0.09400
C2443       C  0.56333937  0.81271016  0.74571928    -0.54100
C2444       C  0.58361414  0.78935133  0.72305552     0.09900
H2445       H  0.61040132  0.81081332  0.81579267     0.14500
H2446       H  0.64407889  0.77874127  0.70943678     0.00200
H2447       H  0.61605789  0.88609105  0.74628020     0.14800
H2448       H  0.53391250  0.80925303  0.74988761     0.14600
C2449       C  0.72622348  0.57182956  0.70724136     0.29900
C2450       C  0.66606944  0.58367100  0.66844868     0.29900
C2451       C  0.73378134  0.58812192  0.67299253    -0.06300
C2452       C  0.70409261  0.53850194  0.69596287    -0.07100
C2453       C  0.69614108  0.59433755  0.72554655    -0.07000
C2454       C  0.70403380  0.59388799  0.65281576    -0.06300
C2455       C  0.67255680  0.54361910  0.67585860    -0.07100
C2456       C  0.66588707  0.60109956  0.70569614    -0.07000
C2457       C  0.71913415  0.60458395  0.62172711    -0.32400
N2458       N  0.75612717  0.61077438  0.62521598     0.14100
C2459       C  0.76528888  0.59704653  0.65518622    -0.32400
H2460       H  0.79276867  0.59147145  0.66280633     0.16100
C2461       C  0.65660770  0.50987073  0.67048500    -0.31400
N2462       N  0.67670604  0.98637989  0.68743797     0.12800
C2463       C  0.70545669  0.50382149  0.70276078    -0.31400
C2464       C  0.63656627  0.60556412  0.72902639    -0.31600
N2465       N  0.64786941  0.60317401  0.76203923     0.13400
H2466       H  0.60840980  0.60470263  0.72172672     0.16000
C2467       C  0.68353817  0.59390558  0.75965087    -0.31700
H2468       H  0.69832898  0.58331398  0.78045595     0.16000
H2469       H  0.72648848  0.99137726  0.71684009     0.16000
H2470       H  0.70439961  0.60582872  0.59779195     0.16100
H2471       H  0.63300429  0.00261806  0.65479903     0.16000
C2472       C  0.83212730  0.63904107  0.56155265     0.86300
C2473       C  0.84888621  0.66635581  0.58903080    -0.53900
C2474       C  0.82441348  0.68266491  0.61216979     0.09300
C2475       C  0.78300122  0.67146138  0.60296922     0.20200
C2476       C  0.80747506  0.61428471  0.58238256    -0.54600
C2477       C  0.78131987  0.63051262  0.60359889     0.09400
C2478       C  0.80277541  0.65946215  0.54206780    -0.54100
C2479       C  0.77680570  0.67701578  0.56311863     0.09900
H2480       H  0.87838705  0.67020470  0.59145891     0.14500
H2481       H  0.76264158  0.68512343  0.62115211     0.00200
H2482       H  0.81014100  0.58584960  0.58002995     0.14800
H2483       H  0.79935436  0.65675549  0.51422174     0.14600
C2484       C  0.59341495  0.63445111  0.84497633     0.86300
C2485       C  0.57067587  0.65715876  0.82160736    -0.53900
C2486       C  0.59129144  0.67230035  0.79685348     0.09300
C2487       C  0.63179715  0.66231533  0.79594694     0.20200
C2488       C  0.61177611  0.60741270  0.81755337    -0.54600
C2489       C  0.63152709  0.62232057  0.79211927     0.09400
C2490       C  0.62573525  0.65896202  0.85882557    -0.54100
C2491       C  0.64638390  0.67299128  0.83268100     0.09900
H2492       H  0.54096154  0.65704780  0.82023789     0.14500
H2493       H  0.64752721  0.67366865  0.77421101     0.00200
H2494       H  0.60814224  0.57910298  0.81741293     0.14800
H2495       H  0.63164243  0.66386948  0.88632798     0.14600
C2496       C  0.83498299  0.73902353  0.71366384     0.29900
C2497       C  0.83591003  0.70382935  0.64770408     0.29900
C2498       C  0.82009508  0.75894392  0.68402260    -0.06300
C2499       C  0.87461313  0.73015442  0.69796358    -0.07100
C2500       C  0.81760436  0.70259159  0.71062547    -0.07000
C2501       C  0.82105053  0.74134148  0.65039569    -0.06300
C2502       C  0.87538741  0.71146299  0.66396119    -0.07100
C2503       C  0.81786880  0.68491205  0.67723373    -0.07000
C2504       C  0.83203728  0.76681396  0.62820850    -0.32400
N2505       N  0.83457761  0.79909068  0.64525126     0.14100
C2506       C  0.82959955  0.79353213  0.67934100    -0.32400
H2507       H  0.83893027  0.81203680  0.70011782     0.16100
C2508       C  0.91260358  0.70588461  0.65538239    -0.31400
N2509       N  0.93370278  0.72074001  0.68192559     0.12800
C2510       C  0.91090140  0.73557680  0.70765995    -0.31400
C2511       C  0.82448497  0.65004833  0.68212532    -0.31600
N2512       N  0.82737838  0.64516954  0.71630059     0.13400
H2513       H  0.83365208  0.63097183  0.66156835     0.16000
C2514       C  0.82459731  0.67726238  0.73335427    -0.31700
H2515       H  0.83533063  0.68302440  0.75923071     0.16000
H2516       H  0.92023434  0.74875261  0.73190135     0.16000
H2517       H  0.84400598  0.76126261  0.60229861     0.16100
H2518       H  0.92359780  0.69244765  0.63155308     0.16000
C2519       C  0.80717407  0.87549648  0.59185652     0.86300
C2520       C  0.79014750  0.84584073  0.56770792    -0.53900
C2521       C  0.77394177  0.82048298  0.58511737     0.09300
C2522       C  0.77606276  0.82567050  0.62468160     0.20200
C2523       C  0.77639416  0.88833783  0.61816570    -0.54600
C2524       C  0.76003123  0.86214654  0.63533829     0.09400
C2525       C  0.83447168  0.85420164  0.61336609    -0.54100
C2526       C  0.81708317  0.82831930  0.63091310     0.09900
H2527       H  0.79191740  0.84413710  0.53929060     0.14500
H2528       H  0.76242689  0.80384983  0.63780953     0.00200
H2529       H  0.76809700  0.91533086  0.62122911     0.14800
H2530       H  0.86426651  0.85583048  0.61128584     0.14600
C2531       C  0.81246752  0.56210011  0.76482942     0.86300
C2532       C  0.79349883  0.58646259  0.79394664    -0.53900
C2533       C  0.77336093  0.61201128  0.78165825     0.09300
C2534       C  0.77345374  0.61169219  0.74207126     0.20200
C2535       C  0.78155169  0.54844904  0.73998634    -0.54600
C2536       C  0.76041783  0.57461390  0.72908761     0.09400
C2537       C  0.83522635  0.58879960  0.74377456    -0.54100
C2538       C  0.81386852  0.61423210  0.73155867     0.09900
H2539       H  0.79736402  0.58490394  0.82180598     0.14500
H2540       H  0.75705343  0.63346931  0.73280452     0.00200
H2541       H  0.77706274  0.52086617  0.73241613     0.14800
H2542       H  0.86491294  0.59040864  0.74159100     0.14600
C2543       C  0.72616693  0.86414184  0.65948967     0.29900
C2544       C  0.66551704  0.85208740  0.70067806     0.29900
C2545       C  0.73318642  0.84822664  0.69389047    -0.06300
C2546       C  0.70380747  0.89733159  0.67120762    -0.07100
C2547       C  0.69633168  0.84079808  0.64268372    -0.07000
C2548       C  0.70290423  0.84246703  0.71481217    -0.06300
C2549       C  0.67222954  0.89200935  0.69273618    -0.07100
C2550       C  0.66538877  0.83435523  0.66357008    -0.07000
C2551       C  0.71598372  0.83020040  0.74501449    -0.32400
N2552       N  0.75265647  0.82350282  0.74072625     0.14100
C2553       C  0.76358422  0.83795539  0.71097547    -0.32400
H2554       H  0.79146755  0.84372901  0.70346570     0.16100
C2555       C  0.65634013  0.92549341  0.69877753    -0.31400
N2556       N  0.67662328  0.94924826  0.68110325     0.12800
C2557       C  0.70544264  0.93218343  0.66466654    -0.31400
C2558       C  0.63640031  0.83101631  0.64102272    -0.31600
N2559       N  0.64857382  0.83274219  0.60763802     0.13400
H2560       H  0.60805836  0.83407387  0.64905268     0.16000
C2561       C  0.68452307  0.84106542  0.60896036    -0.31700
H2562       H  0.70017452  0.85105667  0.58754284     0.16000
H2563       H  0.72672584  0.94525578  0.65060330     0.16000
H2564       H  0.70002554  0.82754339  0.76871240     0.16100
H2565       H  0.63257362  0.93239082  0.71537252     0.16000
C2566       C  0.59400130  0.79645821  0.52927374     0.86300
C2567       C  0.57373874  0.77128805  0.55335334    -0.53900
C2568       C  0.59502592  0.76047435  0.57883268     0.09300
C2569       C  0.63484298  0.77198573  0.57650424     0.20200
C2570       C  0.61310810  0.82488119  0.55388098    -0.54600
C2571       C  0.63337076  0.81182641  0.57876244     0.09400
C2572       C  0.62669021  0.77275186  0.51363027    -0.54100
C2573       C  0.64814486  0.76002847  0.53888407     0.09900
H2574       H  0.54443833  0.76522734  0.55237024     0.14500
H2575       H  0.65127515  0.76204824  0.59770966     0.00200
H2576       H  0.60889057  0.85297457  0.55309211     0.14800
H2577       H  0.63113073  0.76367885  0.48667677     0.14600
C2578       C  0.82731028  0.79956544  0.80297609     0.86300
C2579       C  0.84657008  0.77638007  0.77281315    -0.53900
C2580       C  0.82329921  0.75841872  0.75018806     0.09300
C2581       C  0.78155918  0.76422521  0.76194662     0.20200
C2582       C  0.79945845  0.82252663  0.78521619    -0.54600
C2583       C  0.77627293  0.80487073  0.76310763     0.09400
C2584       C  0.80133903  0.77467971  0.82242532    -0.54100
C2585       C  0.77667037  0.75584851  0.80185046     0.09900
H2586       H  0.87618321  0.77665239  0.76852609     0.14500
H2587       H  0.76277255  0.74914201  0.74387585     0.00200
H2588       H  0.79855278  0.85103044  0.78915161     0.14800
H2589       H  0.79905793  0.77546788  0.85051287     0.14600
C2590       C  0.68220570  0.73619061  0.53517089     0.29900
C2591       C  0.74317074  0.69739946  0.54911957     0.29900
C2592       C  0.67459348  0.70018869  0.54865560    -0.06300
C2593       C  0.70658977  0.72639263  0.50320919    -0.07100
C2594       C  0.71104695  0.75378911  0.55909808    -0.07000
C2595       C  0.70493377  0.68267723  0.55979944    -0.06300
C2596       C  0.73793095  0.70563102  0.50880510    -0.07100
C2597       C  0.74157980  0.73399769  0.56677978    -0.07000
C2598       C  0.69052962  0.66727147  0.58880640    -0.32400
N2599       N  0.65319725  0.66520400  0.58773861     0.14100
C2600       C  0.64331990  0.68568829  0.56244392    -0.32400
H2601       H  0.61552131  0.69100152  0.55514266     0.16100
C2602       C  0.75495072  0.70117124  0.97522116    -0.31400
N2603       N  0.73599037  0.71967035  0.95203370     0.12800
C2604       C  0.70685006  0.73509852  0.96946322    -0.31400
C2605       C  0.77017549  0.75715587  0.57150827    -0.31600
N2606       N  0.75822605  0.78985256  0.56820175     0.13400
H2607       H  0.79869551  0.74982585  0.57063093     0.16000
C2608       C  0.72306495  0.78780927  0.55860873    -0.31700
H2609       H  0.70848359  0.80874477  0.54769088     0.16000
H2610       H  0.68598498  0.74983255  0.95742542     0.16000
H2611       H  0.70559183  0.66360000  0.61178917     0.16100
H2612       H  0.77858650  0.68497541  0.96788234     0.16000
C2613       C  0.68176430  0.69572316  0.83425843     0.29900
C2614       C  0.74363267  0.73420161  0.81738852     0.29900
C2615       C  0.67530697  0.73086820  0.81940905    -0.06300
C2616       C  0.70552686  0.70689233  0.86541217    -0.07100
C2617       C  0.71099478  0.67712337  0.81000643    -0.07000
C2618       C  0.70594617  0.74798420  0.80700031    -0.06300
C2619       C  0.73742891  0.72734876  0.85821151    -0.07100
C2620       C  0.74245783  0.69676745  0.80148891    -0.07000
C2621       C  0.69256445  0.76404485  0.77874064    -0.32400
N2622       N  0.65527036  0.76534844  0.78035859     0.14100
C2623       C  0.64472327  0.74518278  0.80630181    -0.32400
H2624       H  0.61697518  0.74122899  0.81586105     0.16100
C2625       C  0.75501435  0.73143854  0.89081113    -0.31400
N2626       N  0.73561045  0.71335769  0.91507191     0.12800
C2627       C  0.70577916  0.69838686  0.89927684    -0.31400
C2628       C  0.77108644  0.67364644  0.79936103    -0.31600
N2629       N  0.75868068  0.64086888  0.80308617     0.13400
H2630       H  0.79976085  0.68104541  0.80187809     0.16000
C2631       C  0.72265509  0.64319200  0.81169584    -0.31700
H2632       H  0.70697873  0.62258888  0.82311657     0.16000
H2633       H  0.68473499  0.68373197  0.91245610     0.16000
H2634       H  0.70828265  0.76994481  0.75616422     0.16100
H2635       H  0.77962991  0.74670709  0.89675096     0.16000
O2636       O  0.99099529  0.48368904  0.51150325    -0.80300
O2637       O  0.91963428  0.48508503  0.86607595    -0.80300
O2638       O  0.50666675  0.51829272  0.93381210    -0.80300
O2639       O  0.92452266  0.52708217  0.94841950    -0.80300
O2640       O  0.99528488  0.50195257  0.87949648    -0.80400
O2641       O  0.92297444  0.50308809  0.49904489    -0.80300
O2642       O  0.87297323  0.50368781  0.90135911    -0.80300
O2643       O  0.54864982  0.98938752  0.97618787    -0.80300
C2644       C  0.52292163  0.49648874  0.00714339     1.09400
C2645       C  0.88832101  0.50068484  0.87110300     1.09300
C2646       C  0.50703732  0.52549028  0.90258618     1.09400
C2647       C  0.92021070  0.53013722  0.98140543     1.09300
O2648       O  0.90611552  0.92852222  0.47537957    -0.80300
O2649       O  0.00375266  0.92531157  0.88750960    -0.80400
O2650       O  0.52318593  0.92230259  0.95655826    -0.80300
O2651       O  0.88766525  0.93522985  0.90451383    -0.80300
O2652       O  0.93687207  0.91280189  0.87874680    -0.80300
O2653       O  0.97481096  0.91062201  0.48501050    -0.80300
O2654       O  0.87305985  0.97272939  0.96602771    -0.80200
O2655       O  0.54349739  0.96159714  0.90325643    -0.80300
Co2656     Co  0.94932716  0.95597145  0.98905733     1.51500
Co2657     Co  0.96339142  0.95709904  0.88264519     1.51700
Co2658     Co  0.50962636  0.97169178  0.94689066     1.51600
Co2659     Co  0.90931256  0.98176296  0.92584530     1.51500
O2660       O  0.95780496  0.96186066  0.93730296    -1.42200
C2661       C  0.87770974  0.94572785  0.98268458     1.07700
C2662       C  0.53343610  0.93670258  0.88182530     1.09400
C2663       C  0.50399455  0.90037106  0.97229590     1.09400
C2664       C  0.90341552  0.91044297  0.88607112     1.09300
C2665       C  0.86787173  0.85422180  0.80945942    -0.02000
C2666       C  0.85424824  0.82373993  0.82452355     0.07700
C2667       C  0.86332602  0.81959810  0.85986421    -0.02100
C2668       C  0.87737272  0.84862074  0.88116953    -0.02100
C2669       C  0.88305438  0.88135461  0.86715371     0.07800
C2670       C  0.87916182  0.88351675  0.83091906    -0.02300
Br2671     Br  0.88974386  0.92680030  0.80972944    -0.00900
Br2672     Br  0.87244736  0.85632071  0.75908403    -0.00900
Br2673     Br  0.89114867  0.84329595  0.92872576    -0.00900
Br2674     Br  0.86674797  0.77324105  0.87635607    -0.00900
C2675       C  0.54744313  0.84856648  0.45871106    -0.02000
C2676       C  0.51960389  0.86569944  0.47951996     0.07700
C2677       C  0.50948076  0.85184557  0.51118703    -0.02100
C2678       C  0.53483228  0.83183731  0.52763026    -0.02100
C2679       C  0.56581581  0.81603277  0.50837585     0.07800
C2680       C  0.57041801  0.82352608  0.47256981    -0.02300
Br2681     Br  0.60957240  0.80491634  0.44191833    -0.00900
Br2682     Br  0.55033075  0.85658239  0.90993941    -0.00900
Br2683     Br  0.52854933  0.83418402  0.57846546    -0.00900
Br2684     Br  0.46039612  0.85767913  0.53189217    -0.00900
C2685       C  0.88933526  0.52350502  0.81123846    -0.02000
C2686       C  0.86915197  0.51148262  0.84019294     0.07700
C2687       C  0.83113699  0.50395333  0.83662662    -0.02100
C2688       C  0.81252990  0.51502478  0.80782627    -0.02100
C2689       C  0.83218603  0.53321790  0.78222394     0.07800
C2690       C  0.87081479  0.53093579  0.78103192    -0.02300
Br2691     Br  0.89731939  0.52833199  0.73664306    -0.00900
Br2692     Br  0.94188470  0.53190304  0.81225378    -0.00900
Br2693     Br  0.75963973  0.00765170  0.80557099    -0.00900
Br2694     Br  0.80418442  0.97705747  0.86996245    -0.00900
C2695       C  0.80046501  0.91462613  0.54083733    -0.02000
C2696       C  0.82122353  0.90484740  0.56971852     0.07700
C2697       C  0.85614150  0.92025628  0.57463705    -0.02100
C2698       C  0.87426350  0.93517319  0.54659675    -0.02100
C2699       C  0.85610131  0.93794787  0.51443150     0.07800
C2700       C  0.81849787  0.92936236  0.51243547    -0.02300
Br2701     Br  0.79330596  0.93262858  0.96900155    -0.00900
Br2702     Br  0.74752732  0.90765269  0.53932242    -0.00900
Br2703     Br  0.92479456  0.94919315  0.55323139    -0.00900
Br2704     Br  0.87665637  0.92644780  0.62089764    -0.00900
C2705       C  0.58859217  0.58673368  0.88751496    -0.02000
C2706       C  0.57139900  0.61472312  0.87242613     0.07700
C2707       C  0.53269322  0.61808143  0.87790880    -0.02100
C2708       C  0.51129658  0.58862934  0.88652816    -0.02100
C2709       C  0.52863220  0.55715844  0.89353203     0.07800
C2710       C  0.56742680  0.55801847  0.89768656    -0.02300
Br2711     Br  0.59284556  0.02003478  0.91653674    -0.00900
Br2712     Br  0.64145136  0.58709707  0.89361124    -0.00900
Br2713     Br  0.95850298  0.59259996  0.89163336    -0.00900
Br2714     Br  0.51041147  0.66407498  0.88337371    -0.00900
C2715       C  0.90747988  0.56908127  0.53824987    -0.02000
C2716       C  0.90464274  0.56365845  0.50135116     0.07700
C2717       C  0.88468433  0.58894701  0.48422385    -0.02100
C2718       C  0.86773171  0.61769388  0.50360893    -0.02100
C2719       C  0.86246230  0.61741136  0.54031441     0.07800
C2720       C  0.88539120  0.59440067  0.55761893    -0.02300
Br2721     Br  0.88749611  0.59667384  0.60830493    -0.00900
Br2722     Br  0.94187063  0.04253321  0.56335468    -0.00900
Br2723     Br  0.86181506  0.66017780  0.48007065    -0.00900
Br2724     Br  0.87550325  0.58372512  0.93454582    -0.00900
C2725       C  0.54173563  0.88719558  0.79374314    -0.02000
C2726       C  0.57442034  0.86816608  0.79764709     0.07700
C2727       C  0.59991409  0.88329323  0.82340812    -0.02100
C2728       C  0.58813156  0.90860265  0.85007741    -0.02100
C2729       C  0.55280197  0.92243618  0.84927825     0.07800
C2730       C  0.53161184  0.91455470  0.81904228    -0.02300
Br2731     Br  0.98954856  0.94235792  0.81028383    -0.00900
Br2732     Br  0.51263536  0.87965833  0.75226553    -0.00900
Br2733     Br  0.61985786  0.92381792  0.88827276    -0.00900
Br2734     Br  0.65256144  0.87384559  0.82171348    -0.00900
C2735       C  0.54430714  0.51052434  0.56779439    -0.02000
C2736       C  0.53712876  0.52170151  0.53461585     0.07700
C2737       C  0.53467260  0.55806884  0.53037131    -0.02100
C2738       C  0.54065881  0.58273707  0.55869614    -0.02100
C2739       C  0.55476342  0.57175703  0.58985219     0.07800
C2740       C  0.55127060  0.53557612  0.59584625    -0.02300
Br2741     Br  0.54749328  0.52098264  0.64295072    -0.00900
Br2742     Br  0.04578458  0.96089114  0.57437795    -0.00900
Br2743     Br  0.52680895  0.63128453  0.55580630    -0.00900
Br2744     Br  0.52323108  0.57547008  0.98632227    -0.00900
loop_ 
_geom_bond_atom_site_label_1 
_geom_bond_atom_site_label_2 
_geom_bond_distance 
_geom_bond_site_symmetry_2 
_ccdc_geom_bond_type 
C1            C2   1.553       .  S
C1            C7   1.551       .  S
C1            C5   1.535       .  S
C1          C338   1.534       .  S
C2            H9   1.085       .  S
C2            C3   1.360       .  D
C3            C4   1.542       .  S
C3          N198   1.453       .  S
C4            C8   1.594       .  S
C4            C6   1.584       .  S
C4           H10   1.110       .  S
C5           H11   1.077       .  S
C5            C6   1.344       .  D
C6           C49   1.548       .  S
C7           H12   1.083       .  S
C7            C8   1.367       .  D
C8           C13   1.580       .  S
C13          C15   1.513       .  S
C13          C17   1.509       .  S
C13          C16   1.585       .  S
C14          C43   1.586       .  S
C14          C18   1.524       .  S
C14          C20   1.526       .  S
C14          C19   1.579       .  S
C15          C23   1.374       .  A
C15          C18   1.403       .  A
C16          C19   1.437       .  A
C16        C1399   1.391   1_455  A
C17          C31   1.374       .  A
C17          C20   1.400       .  A
C18          C21   1.380       .  A
C19        C1397   1.388   1_455  A
C20          C28   1.379       .  A
C21          N22   1.345       .  A
C21          H34   1.074       .  S
N22         C167   1.423       .  S
N22          C23   1.335       .  A
C23          H24   1.078       .  S
C25        C1391   1.388       .  A
C25          N26   1.369       .  A
C25          H35   1.082       .  S
N26          C27   1.367       .  A
N26         N108   1.425       .  S
C27        C1388   1.391       .  A
C27          H33   1.081       .  S
C28          N29   1.345       .  A
C28          H30   1.080       .  S
N29          C85   1.426       .  S
N29          C31   1.341       .  A
C31          H32   1.073       .  S
C36          C37   1.529       .  S
C36          C42   1.582       .  S
C36          C40   1.523       .  S
C36         C325   1.535       .  S
C37          H44   1.087       .  S
C37          C38   1.347       .  D
C38          C39   1.548       .  S
C38         N221   1.448       .  S
C39          C43   1.585       .  S
C39          C41   1.582       .  S
C39          H45   1.110       .  S
C40          H46   1.083       .  S
C40          C41   1.334       .  D
C41         C143   1.541       .  S
C42          H47   1.083       .  S
C42          C43   1.392       .  D
C48         C135   1.511       .  S
C48          C50   1.515       .  S
C48          C52   1.518       .  S
C48          C51   1.535       .  S
C49          C53   1.547       .  S
C49          C55   1.526       .  S
C49          C54   1.596       .  S
C50          C58   1.371       .  A
C50          C53   1.372       .  A
C51          C62   1.370       .  A
C51          C54   1.418       .  A
C52          C66   1.376       .  A
C52          C55   1.388       .  A
C53          C56   1.389       .  A
C54          C60   1.408       .  A
C55          C63   1.376       .  A
C56          N57   1.368       .  A
C56          H69   1.077       .  S
N57          C76   1.462       .  S
N57          C58   1.350       .  A
C58          H59   1.073       .  S
C60         N747   1.373   1_545  A
C60         H756   1.079       .  S
N61         C746   1.373       .  A
N61         C748   1.353       .  A
N61         N155   1.418       .  S
C62         N747   1.353   1_545  A
C62         H754   1.079   1_545  S
C63          N64   1.350       .  A
C63          H65   1.065       .  S
N64          C88   1.434       .  S
N64          C66   1.343       .  A
C66          H67   1.078       .  S
H68         C748   1.079       .  S
H70         C746   1.079       .  S
C71          C72   1.553       .  S
C71          C77   1.565       .  S
C71          C75   1.548       .  S
C71         C318   1.561       .  S
C72          H79   1.083       .  S
C72          C73   1.360       .  D
C73          C74   1.597       .  S
C73          C96   1.590       .  S
C74          C78   1.580       .  S
C74          C76   1.564       .  S
C74          H80   1.108       .  S
C75          H81   1.086       .  S
C75          C76   1.356       .  D
C77          H82   1.074       .  S
C77          C78   1.371       .  D
C78         C190   1.582       .  S
C83          C84   1.551       .  S
C83          C89   1.568       .  S
C83          C87   1.555       .  S
C83         C305   1.544       .  S
C84          H91   1.080       .  S
C84          C85   1.355       .  D
C85          C86   1.520       .  S
C86          C90   1.539       .  S
C86          C88   1.521       .  S
C86          H92   1.112       .  S
C87          H93   1.086       .  S
C87          C88   1.354       .  D
C89          H94   1.082       .  S
C89          C90   1.376       .  D
C90         C212   1.541       .  S
C95         C179   1.581       .  S
C95          C97   1.528       .  S
C95          C99   1.517       .  S
C95          C98   1.574       .  S
C96         C100   1.529       .  S
C96         C102   1.522       .  S
C96         C101   1.590       .  S
C97         C105   1.384       .  A
C97         C100   1.405       .  A
C98         C109   1.385       .  A
C98         C101   1.435       .  A
C99         C113   1.380       .  A
C99         C102   1.398       .  A
C100        C103   1.390       .  A
C101        C107   1.395       .  A
C102        C110   1.382       .  A
C103        N104   1.350       .  A
C103        H116   1.081       .  S
N104        C125   1.441       .  S
N104        C105   1.348       .  A
C105        H106   1.080       .  S
C107        N108   1.371       .  A
C107        H117   1.081       .  S
N108        C109   1.363       .  A
C109        H115   1.081       .  S
C110        N111   1.344       .  A
C110        H112   1.078       .  S
N111        C137   1.435       .  S
N111        C113   1.344       .  A
C113        H114   1.080       .  S
C118        C119   1.538       .  S
C118        C124   1.575       .  S
C118        C122   1.543       .  S
C118        C295   1.533       .  S
C119        H126   1.086       .  S
C119        C120   1.341       .  D
C120        C121   1.517       .  S
C120        N205   1.412       .  S
C121        C125   1.513       .  S
C121        C123   1.534       .  S
C121        H127   1.112       .  S
C122        H128   1.072       .  S
C122        C123   1.362       .  D
C123        C142   1.518       .  S
C124        H129   1.083       .  S
C124        C125   1.377       .  D
C130        C131   1.547       .  S
C130        C136   1.566       .  S
C130        C134   1.548       .  S
C130        C288   1.525       .  S
C131        H138   1.087       .  S
C131        C132   1.345       .  D
C132        C133   1.516       .  S
C132        N228   1.420       .  S
C133        C137   1.515       .  S
C133        C135   1.535       .  S
C133        H139   1.112       .  S
C134        H140   1.081       .  S
C134        C135   1.362       .  D
C136        H141   1.079       .  S
C136        C137   1.366       .  D
C142        C144   1.523       .  S
C142        C146   1.517       .  S
C142        C145   1.541       .  S
C143        C147   1.530       .  S
C143        C149   1.524       .  S
C143        C148   1.593       .  S
C144        C152   1.372       .  A
C144        C147   1.370       .  A
C145        C156   1.373       .  A
C145        C148   1.418       .  A
C146        C160   1.372       .  A
C146        C149   1.393       .  A
C147        C150   1.379       .  A
C148        C154   1.407       .  A
C149        C157   1.375       .  A
C150        N151   1.360       .  A
C150        H163   1.076       .  S
N151        C182   1.455       .  S
N151        C152   1.355       .  A
C152        H153   1.071       .  S
C154        N155   1.372       .  A
C154        H164   1.081       .  S
N155        C156   1.353       .  A
C156        H162   1.072       .  S
C157        N158   1.349       .  A
C157        H159   1.070       .  S
N158        C170   1.430       .  S
N158        C160   1.340       .  A
C160        H161   1.079       .  S
C165        C166   1.552       .  S
C165        C171   1.576       .  S
C165        C169   1.548       .  S
C165        C278   1.548       .  S
C166        H173   1.086       .  S
C166        C167   1.352       .  D
C167        C168   1.508       .  S
C168        C172   1.545       .  S
C168        C170   1.517       .  S
C168        H174   1.112       .  S
C169        H175   1.087       .  S
C169        C170   1.347       .  D
C171        H176   1.073   1_554  S
C171        C172   1.378       .  D
C172        C189   1.539       .  S
C177        C178   1.555       .  S
C177        C183   1.551       .  S
C177        C181   1.548       .  S
C177        C265   1.545       .  S
C178        H185   1.082       .  S
C178        C179   1.365       .  D
C179        C180   1.581       .  S
C180        C184   1.593       .  S
C180        C182   1.561       .  S
C180        H186   1.107       .  S
C181        H187   1.086       .  S
C181        C182   1.345       .  D
C183        H188   1.076       .  S
C183        C184   1.367       .  D
C184        C213   1.580       .  S
C189        C191   1.526       .  S
C189        C193   1.523       .  S
C189        C192   1.518       .  S
C190        C194   1.549       .  S
C190        C196   1.503       .  S
C190        C195   1.617       .  S
C191        C199   1.370       .  A
C191        C194   1.387       .  A
C192        C195   1.422       .  A
C192        C546   1.361   1_554  A
C193        C207   1.366       .  A
C193        C196   1.397       .  A
C194        C197   1.387       .  A
C195        C544   1.413   1_554  A
C196        C204   1.361       .  A
C197        N198   1.357       .  A
C197        H210   1.067       .  S
N198        C199   1.350       .  A
C199        H200   1.078       .  S
C201        C538   1.413       .  A
C201        N202   1.378       .  A
C201        H211   1.080       .  S
N202        C203   1.351       .  A
N202        N225   1.418       .  S
C203        C535   1.362       .  A
C203        H209   1.081       .  S
C204        N205   1.341       .  A
C204        H206   1.073       .  S
N205        C207   1.335       .  A
C207        H208   1.079       .  S
C212        C214   1.520       .  S
C212        C216   1.534       .  S
C212        C215   1.520       .  S
C213        C217   1.541       .  S
C213        C219   1.508       .  S
C213        C218   1.617       .  S
C214        C222   1.365       .  A
C214        C217   1.377       .  A
C215        C226   1.363       .  A
C215        C218   1.423       .  A
C216        C230   1.372       .  A
C216        C219   1.405       .  A
C217        C220   1.386       .  A
C218        C224   1.413       .  A
C219        C227   1.366       .  A
C220        N221   1.353       .  A
C220        H233   1.063       .  S
N221        C222   1.351       .  A
C222        H223   1.076       .  S
C224        N225   1.377       .  A
C224        H234   1.080       .  S
N225        C226   1.352       .  A
C226        H232   1.081       .  S
C227        N228   1.341       .  A
C227        H229   1.079       .  S
N228        C230   1.342       .  A
C230        H231   1.080       .  S
O235       C1958   1.288       .  A
O235      Co1284   2.058   1_554  S
O236        C244   1.289   1_565  A
O236       Co942   2.061       .  S
O237        C245   1.249       .  A
O237       Co943   1.924   1_545  S
O238        C246   1.267       .  A
O238       Co944   1.977   1_545  S
O239       C1617   1.282       .  A
O239       Co942   2.078   1_545  S
O240        C589   1.274       .  A
O240      Co1284   2.043   1_545  S
O241        C244   1.271       .  A
O241       Co944   1.886   1_545  S
O242        C929   1.247       .  A
O242       Co257   1.930       .  S
C243       O1950   1.265   1_455  A
C243        O928   1.247       .  A
C243        C678   1.467   1_565  S
C244        C285   1.478       .  S
C245       O1611   1.282   1_455  A
C245        C308   1.492       .  S
C246        O583   1.278       .  A
C246        C658   1.511       .  S
O247        C603   1.244       .  A
O247       Co598   1.935       .  S
O248       C1633   1.237       .  A
O248       Co256   1.932       .  S
O249        C262   1.273       .  A
O249       Co257   2.006       .  S
O250        C263   1.267       .  A
O250       Co258   2.051       .  S
O251        C263   1.243       .  A
O251       Co256   1.933       .  S
O252       C1977   1.261       .  A
O252       Co598   1.965       .  S
O253        C260   1.269       .  A
O253       Co258   2.049       .  S
O254        C261   1.242       .  A
O254       Co257   1.995       .  S
Co255      O1264   2.007       .  S
Co255      O1269   2.047       .  S
Co255       O590   1.935       .  S
Co255       O595   1.965       .  S
Co255       O259   2.030       .  S
Co256       O922   2.061       .  S
Co256       O925   2.078       .  S
Co256       O259   2.094       .  S
Co257       O923   1.924       .  S
Co257      O1631   2.026   1_455  S
Co258       O924   1.977       .  S
Co258       O927   1.886       .  S
Co258       O259   1.995       .  S
O259      Co1629   2.026       .  S
C260        O590   1.244       .  A
C260        C641   1.481       .  S
C261       O1620   1.237       .  A
C261        C328   1.456       .  S
C262       O1967   1.261   1_455  A
C262        C618   1.493       .  S
C263        C268   1.478       .  S
C264        C265   1.418       .  A
C264        C269   1.398       .  A
C264       Br271   1.942       .  S
C265        C266   1.423       .  A
C266        C267   1.420       .  A
C266       Br273   1.930       .  S
C267        C268   1.409       .  A
C267       Br272   1.928       .  S
C268        C269   1.408       .  A
C269       Br270   1.928       .  S
C274        C275   1.406       .  A
C274        C279   1.418       .  A
C274       Br624   1.920       .  S
C275        C276   1.401   1_556  A
C275        C605   1.495       .  S
C276        C277   1.394       .  A
C276       Br283   1.939   1_455  S
C277        C278   1.439       .  A
C277       Br282   1.951       .  S
C278        C279   1.430   1_554  A
C279       Br280   1.926       .  S
Br281       C617   1.922       .  S
C284        C285   1.419       .  A
C284        C289   1.403       .  A
C284       Br291   1.929       .  S
C285        C286   1.412       .  A
C286        C287   1.403       .  A
C286       Br979   1.936   1_545  S
C287        C288   1.420       .  A
C287       Br978   1.937       .  S
C288        C289   1.404       .  A
C289       Br290   1.930       .  S
Br292       C973   1.937       .  S
Br293       C972   1.936       .  S
C294        C295   1.429       .  A
C294        C299   1.408       .  A
C294       Br301   1.937       .  S
C295        C296   1.401       .  A
C296        C297   1.402       .  A
C296       Br303   1.936       .  S
C297        C298   1.423       .  A
C297       Br302   1.921       .  S
C298        C299   1.401       .  A
C298        C603   1.480   1_554  S
C299       Br643   1.930   1_554  S
Br300       C642   1.930       .  S
C304        C305   1.411       .  A
C304        C309   1.406       .  A
C304       Br311   1.936       .  S
C305        C306   1.420       .  A
C306        C307   1.415       .  A
C306       Br313   1.933       .  S
C307        C308   1.408       .  A
C307      Br1684   1.916   1_455  S
C308        C309   1.419       .  A
C309       Br996   1.924       .  S
Br310       C995   1.924       .  S
Br312      C1679   1.916       .  S
C314        C315   1.422       .  A
C314        C319   1.417       .  A
C314      Br1007   1.935       .  S
C315        C316   1.423   1_554  A
C315        C589   1.519   1_554  S
C316        C317   1.414   1_556  A
C316       Br666   1.924       .  S
C317        C318   1.416       .  A
C317       Br322   1.932   1_554  S
C318        C319   1.427       .  A
C319       Br320   1.942       .  S
Br321      C1000   1.935       .  S
Br323       C659   1.926       .  S
C324        C325   1.414       .  A
C324        C329   1.404       .  A
C324       Br331   1.928       .  S
C325        C326   1.450       .  A
C326        C327   1.400       .  A
C326       Br333   1.947       .  S
C327        C328   1.389       .  A
C327       Br332   1.940       .  S
C328        C329   1.406       .  A
C329      Br1702   1.928   1_455  S
Br330      C1701   1.928       .  S
C334        C335   1.404       .  A
C334        C339   1.406       .  A
C334      Br2399   1.931   1_545  S
C335        C336   1.413       .  A
C335        C586   1.467   1_545  S
C336        C337   1.399       .  A
C336       Br686   1.919   1_554  S
C337        C338   1.406       .  A
C337       Br342   1.936       .  S
C338        C339   1.421       .  A
C339       Br340   1.933       .  S
Br341      C2392   1.931       .  S
Br343       C679   1.919       .  S
C344        C345   1.553       .  S
C344        C350   1.552       .  S
C344        C348   1.535       .  S
C344        C681   1.534       .  S
C345        H352   1.085       .  S
C345        C346   1.360       .  D
C346        C347   1.543       .  S
C346        N541   1.453       .  S
C347        C351   1.594       .  S
C347        C349   1.584       .  S
C347        H353   1.110       .  S
C348        H354   1.077       .  S
C348        C349   1.343       .  D
C349        C392   1.548       .  S
C350        H355   1.083       .  S
C350        C351   1.368       .  D
C351        C356   1.582       .  S
C356        C358   1.512       .  S
C356        C360   1.508       .  S
C356        C359   1.585       .  S
C357        C386   1.593       .  S
C357        C361   1.527       .  S
C357        C363   1.527       .  S
C357        C362   1.579       .  S
C358        C366   1.374       .  A
C358        C361   1.404       .  A
C359       C1742   1.391   1_455  A
C359        C362   1.438       .  A
C360        C374   1.374       .  A
C360        C363   1.401       .  A
C361        C364   1.380       .  A
C362       C1740   1.388   1_455  A
C363        C371   1.379       .  A
C364        N365   1.346       .  A
C364        H377   1.074       .  S
N365        C510   1.422       .  S
N365        C366   1.334       .  A
C366        H367   1.078       .  S
C368       C1734   1.388       .  A
C368        N369   1.369       .  A
C368        H378   1.082       .  S
N369        C370   1.367       .  A
N369        N451   1.425       .  S
C370       C1731   1.391       .  A
C370        H376   1.081       .  S
C371        N372   1.345       .  A
C371        H373   1.080       .  S
N372        C428   1.426       .  S
N372        C374   1.341       .  A
C374        H375   1.073       .  S
C379        C380   1.530       .  S
C379        C385   1.589       .  S
C379        C383   1.525       .  S
C379        C668   1.551       .  S
C380        H387   1.087       .  S
C380        C381   1.348       .  D
C381        C382   1.548       .  S
C381        N564   1.449       .  S
C382        C386   1.583       .  S
C382        C384   1.581       .  S
C382        H388   1.110       .  S
C383        H389   1.083       .  S
C383        C384   1.337       .  D
C384        C486   1.544       .  S
C385        H390   1.083       .  S
C385        C386   1.396       .  D
C391        C478   1.511       .  S
C391        C393   1.514       .  S
C391        C395   1.518       .  S
C391        C394   1.535       .  S
C392        C396   1.547       .  S
C392        C398   1.526       .  S
C392        C397   1.597       .  S
C393        C401   1.371       .  A
C393        C396   1.372       .  A
C394        C405   1.370       .  A
C394        C397   1.418       .  A
C395        C409   1.376       .  A
C395        C398   1.388       .  A
C396        C399   1.388       .  A
C397        C403   1.408       .  A
C398        C406   1.376       .  A
C399        N400   1.368       .  A
C399        H412   1.077       .  S
N400        C419   1.462       .  S
N400        C401   1.350       .  A
C401        H402   1.073       .  S
C403       N1090   1.373   1_545  A
C403       H1099   1.079       .  S
N404       C1089   1.373       .  A
N404       C1091   1.353       .  A
N404        N498   1.418       .  S
C405       N1090   1.353   1_545  A
C405       H1097   1.079   1_545  S
C406        N407   1.350       .  A
C406        H408   1.065       .  S
N407        C431   1.434       .  S
N407        C409   1.343       .  A
C409        H410   1.078       .  S
H411       C1091   1.079       .  S
H413       C1089   1.079       .  S
C414        C415   1.552       .  S
C414        C420   1.564       .  S
C414        C418   1.548       .  S
C414        C661   1.556       .  S
C415        H422   1.083       .  S
C415        C416   1.359       .  D
C416        C417   1.597       .  S
C416        C439   1.589       .  S
C417        C421   1.580       .  S
C417        C419   1.564       .  S
C417        H423   1.108       .  S
C418        H424   1.086       .  S
C418        C419   1.356       .  D
C420        H425   1.074       .  S
C420        C421   1.370       .  D
C421        C533   1.580       .  S
C426        C427   1.551       .  S
C426        C432   1.568       .  S
C426        C430   1.555       .  S
C426        C648   1.544       .  S
C427        H434   1.080       .  S
C427        C428   1.355       .  D
C428        C429   1.520       .  S
C429        C433   1.539       .  S
C429        C431   1.521       .  S
C429        H435   1.112       .  S
C430        H436   1.086       .  S
C430        C431   1.354       .  D
C432        H437   1.082       .  S
C432        C433   1.376       .  D
C433        C555   1.541       .  S
C438        C522   1.581       .  S
C438        C440   1.528       .  S
C438        C442   1.517       .  S
C438        C441   1.574       .  S
C439        C443   1.529       .  S
C439        C445   1.521       .  S
C439        C444   1.590       .  S
C440        C448   1.384       .  A
C440        C443   1.405       .  A
C441        C452   1.385       .  A
C441        C444   1.435       .  A
C442        C456   1.381       .  A
C442        C445   1.398       .  A
C443        C446   1.390       .  A
C444        C450   1.396       .  A
C445        C453   1.382       .  A
C446        N447   1.350       .  A
C446        H459   1.080       .  S
N447        C468   1.441       .  S
N447        C448   1.348       .  A
C448        H449   1.080       .  S
C450        N451   1.371       .  A
C450        H460   1.081       .  S
N451        C452   1.363       .  A
C452        H458   1.081       .  S
C453        N454   1.344       .  A
C453        H455   1.078       .  S
N454        C480   1.435       .  S
N454        C456   1.345       .  A
C456        H457   1.080       .  S
C461        C462   1.538       .  S
C461        C467   1.575       .  S
C461        C465   1.543       .  S
C461        C638   1.533       .  S
C462        H469   1.086       .  S
C462        C463   1.341       .  D
C463        C464   1.517       .  S
C463        N548   1.412       .  S
C464        C468   1.513       .  S
C464        C466   1.535       .  S
C464        H470   1.112       .  S
C465        H471   1.072       .  S
C465        C466   1.363       .  D
C466        C485   1.519       .  S
C467        H472   1.083       .  S
C467        C468   1.377       .  D
C473        C474   1.547       .  S
C473        C479   1.566       .  S
C473        C477   1.548       .  S
C473        C631   1.525       .  S
C474        H481   1.087       .  S
C474        C475   1.345       .  D
C475        C476   1.516       .  S
C475        N571   1.420       .  S
C476        C480   1.515       .  S
C476        C478   1.535       .  S
C476        H482   1.112       .  S
C477        H483   1.081       .  S
C477        C478   1.362       .  D
C479        H484   1.079       .  S
C479        C480   1.366       .  D
C485        C487   1.523       .  S
C485        C489   1.517       .  S
C485        C488   1.541       .  S
C486        C490   1.531       .  S
C486        C492   1.526       .  S
C486        C491   1.592       .  S
C487        C495   1.372       .  A
C487        C490   1.370       .  A
C488        C499   1.373       .  A
C488        C491   1.418       .  A
C489        C503   1.372       .  A
C489        C492   1.394       .  A
C490        C493   1.379       .  A
C491        C497   1.406       .  A
C492        C500   1.375       .  A
C493        N494   1.360       .  A
C493        H506   1.076       .  S
N494        C525   1.456       .  S
N494        C495   1.355       .  A
C495        H496   1.070       .  S
C497        N498   1.371       .  A
C497        H507   1.081       .  S
N498        C499   1.353       .  A
C499        H505   1.072       .  S
C500        N501   1.350       .  A
C500        H502   1.071       .  S
N501        C513   1.430       .  S
N501        C503   1.340       .  A
C503        H504   1.079       .  S
C508        C509   1.552       .  S
C508        C514   1.576       .  S
C508        C512   1.549       .  S
C508        C621   1.547       .  S
C509        H516   1.086       .  S
C509        C510   1.351       .  D
C510        C511   1.507       .  S
C511        C515   1.545       .  S
C511        C513   1.517       .  S
C511        H517   1.112       .  S
C512        H518   1.087       .  S
C512        C513   1.347       .  D
C514        H519   1.072       .  S
C514        C515   1.377       .  D
C515        C532   1.538       .  S
C520        C521   1.555       .  S
C520        C526   1.551       .  S
C520        C524   1.548       .  S
C520        C608   1.545       .  S
C521        H528   1.082       .  S
C521        C522   1.365       .  D
C522        C523   1.581       .  S
C523        C527   1.593       .  S
C523        C525   1.561       .  S
C523        H529   1.107       .  S
C524        H530   1.086       .  S
C524        C525   1.345       .  D
C526        H531   1.076       .  S
C526        C527   1.367       .  D
C527        C556   1.580       .  S
C532        C534   1.526       .  S
C532        C536   1.523       .  S
C532        C535   1.518       .  S
C533        C537   1.549       .  S
C533        C539   1.503       .  S
C533        C538   1.617       .  S
C534        C542   1.370       .  A
C534        C537   1.386       .  A
C535        C538   1.422       .  A
C536        C550   1.366       .  A
C536        C539   1.396       .  A
C537        C540   1.387       .  A
C539        C547   1.361       .  A
C540        N541   1.357       .  A
C540        H553   1.067       .  S
N541        C542   1.350       .  A
C542        H543   1.078       .  S
C544        N545   1.378       .  A
C544        H554   1.080       .  S
N545        C546   1.351       .  A
N545        N568   1.418       .  S
C546        H552   1.081       .  S
C547        N548   1.341       .  A
C547        H549   1.073       .  S
N548        C550   1.335       .  A
C550        H551   1.079       .  S
C555        C557   1.520       .  S
C555        C559   1.534       .  S
C555        C558   1.520       .  S
C556        C560   1.541       .  S
C556        C562   1.508       .  S
C556        C561   1.617       .  S
C557        C565   1.365       .  A
C557        C560   1.377       .  A
C558        C569   1.363       .  A
C558        C561   1.423       .  A
C559        C573   1.372       .  A
C559        C562   1.405       .  A
C560        C563   1.386       .  A
C561        C567   1.413       .  A
C562        C570   1.366       .  A
C563        N564   1.353       .  A
C563        H576   1.063       .  S
N564        C565   1.351       .  A
C565        H566   1.076       .  S
C567        N568   1.377       .  A
C567        H577   1.080       .  S
N568        C569   1.352       .  A
C569        H575   1.081       .  S
C570        N571   1.341       .  A
C570        H572   1.079       .  S
N571        C573   1.342       .  A
C573        H574   1.080       .  S
O578       C1615   1.265       .  A
O578       Co941   2.007       .  S
O579        C587   1.290   1_565  A
O579      Co1285   2.063       .  S
O580        C588   1.249       .  A
O580      Co1286   1.924   1_545  S
O581        C589   1.266       .  A
O581      Co1287   1.986   1_545  S
O582       C1960   1.283       .  A
O582      Co1285   2.076   1_545  S
O583       Co941   2.047   1_545  S
O584        C587   1.272       .  A
O584      Co1287   1.882   1_545  S
O585       C1272   1.273   1_556  A
O585       Co600   1.912       .  S
C586       O1607   1.264   1_455  A
C586       O1271   1.248   1_554  A
C587        C628   1.476       .  S
C588       O1954   1.282   1_455  A
C588        C651   1.492       .  S
O591       C1976   1.237       .  A
O591       Co599   1.932       .  S
O592        C605   1.263       .  A
O592       Co600   2.016       .  S
O593        C606   1.267       .  A
O593       Co601   2.051       .  S
O594        C606   1.243       .  A
O594       Co599   1.933       .  S
O595       C1634   1.261       .  A
O596        C603   1.269       .  A
O596       Co601   2.049       .  S
O597        C604   1.262       .  A
O597       Co600   2.065       .  S
Co598       O921   2.006   1_556  S
Co598       O926   2.047       .  S
Co598       O602   2.030       .  S
Co599      O1265   2.061       .  S
Co599      O1268   2.078       .  S
Co599       O602   2.094       .  S
Co600      O1266   1.951       .  S
Co600      O1974   2.004   1_455  S
Co601      O1267   1.977       .  S
Co601      O1270   1.886       .  S
Co601       O602   1.994       .  S
O602      Co1972   2.026       .  S
C604       O1963   1.229       .  A
C604        C671   1.484       .  S
C605       O1624   1.250   1_455  A
C606        C611   1.477       .  S
C607        C608   1.418       .  A
C607        C612   1.398       .  A
C607       Br614   1.942       .  S
C608        C609   1.423       .  A
C609        C610   1.420       .  A
C609       Br616   1.931       .  S
C610        C611   1.409       .  A
C610       Br615   1.928       .  S
C611        C612   1.408       .  A
C612       Br613   1.928       .  S
C617        C618   1.405       .  A
C617        C622   1.416       .  A
C618        C619   1.401       .  A
C619        C620   1.394       .  A
C619       Br626   1.939   1_455  S
C620        C621   1.440       .  A
C620       Br625   1.951       .  S
C621        C622   1.430       .  A
C622       Br623   1.925       .  S
C627        C628   1.419       .  A
C627        C632   1.402       .  A
C627       Br634   1.930       .  S
C628        C629   1.413       .  A
C629        C630   1.403       .  A
C629      Br1322   1.936   1_545  S
C630        C631   1.420       .  A
C630      Br1321   1.937       .  S
C631        C632   1.404       .  A
C632       Br633   1.930       .  S
Br635      C1316   1.937       .  S
Br636      C1315   1.936       .  S
C637        C638   1.429       .  A
C637        C642   1.409       .  A
C637       Br644   1.937       .  S
C638        C639   1.401       .  A
C639        C640   1.402       .  A
C639       Br646   1.936       .  S
C640        C641   1.423       .  A
C640       Br645   1.921       .  S
C641        C642   1.402       .  A
C647        C648   1.411       .  A
C647        C652   1.406       .  A
C647       Br654   1.936       .  S
C648        C649   1.420       .  A
C649        C650   1.415       .  A
C649       Br656   1.933       .  S
C650        C651   1.408       .  A
C650      Br2027   1.916   1_455  S
C651        C652   1.419       .  A
C652      Br1339   1.924       .  S
Br653      C1338   1.917       .  S
Br655      C2022   1.915       .  S
C657        C658   1.419       .  A
C657        C662   1.414       .  A
C657      Br1350   1.935       .  S
C658        C659   1.422       .  A
C659        C660   1.412       .  A
C660        C661   1.416       .  A
C660       Br665   1.932       .  S
C661        C662   1.427       .  A
C662       Br663   1.941       .  S
Br664      C1343   1.935       .  S
C667        C668   1.413       .  A
C667        C672   1.412       .  A
C667       Br674   1.930       .  S
C668        C669   1.451       .  A
C669        C670   1.411       .  A
C669       Br676   1.945       .  S
C670        C671   1.392       .  A
C670       Br675   1.933       .  S
C671        C672   1.417       .  A
C672      Br2045   1.926   1_455  S
Br673      C2044   1.928       .  S
C677        C678   1.404       .  A
C677        C682   1.406       .  A
C677      Br2742   1.931   1_545  S
C678        C679   1.413       .  A
C679        C680   1.398       .  A
C680        C681   1.406       .  A
C680       Br685   1.936       .  S
C681        C682   1.421       .  A
C682       Br683   1.933       .  S
Br684      C2735   1.931       .  S
C687        C688   1.553       .  S
C687        C693   1.553       .  S
C687        C691   1.536       .  S
C687       C1024   1.538       .  S
C688        H695   1.085       .  S
C688        C689   1.360       .  D
C689        C690   1.542       .  S
C689        N884   1.454       .  S
C690        C694   1.594       .  S
C690        C692   1.583       .  S
C690        H696   1.110       .  S
C691        H697   1.077       .  S
C691        C692   1.344       .  D
C692        C735   1.549       .  S
C693        H698   1.083       .  S
C693        C694   1.369       .  D
C694        C699   1.582       .  S
C699        C701   1.513       .  S
C699        C703   1.510       .  S
C699        C702   1.585       .  S
C700        C729   1.587       .  S
C700        C704   1.524       .  S
C700        C706   1.526       .  S
C700        C705   1.579       .  S
C701        C709   1.374       .  A
C701        C704   1.403       .  A
C702       C2085   1.391   1_455  A
C702        C705   1.438       .  A
C703        C717   1.374       .  A
C703        C706   1.400       .  A
C704        C707   1.380       .  A
C705       C2083   1.388   1_455  A
C706        C714   1.379       .  A
C707        N708   1.345       .  A
C707        H720   1.074       .  S
N708        C853   1.422       .  S
N708        C709   1.335       .  A
C709        H710   1.078       .  S
C711       C2077   1.388       .  A
C711        N712   1.369       .  A
C711        H721   1.082       .  S
N712        C713   1.367       .  A
N712        N794   1.425       .  S
C713       C2074   1.391       .  A
C713        H719   1.081       .  S
C714        N715   1.345       .  A
C714        H716   1.080       .  S
N715        C771   1.426       .  S
N715        C717   1.341       .  A
C717        H718   1.073       .  S
C722        C723   1.529       .  S
C722        C728   1.582       .  S
C722        C726   1.523       .  S
C722       C1011   1.535       .  S
C723        H730   1.087       .  S
C723        C724   1.347       .  D
C724        C725   1.548       .  S
C724        N907   1.448       .  S
C725        C729   1.585       .  S
C725        C727   1.582       .  S
C725        H731   1.110       .  S
C726        H732   1.083       .  S
C726        C727   1.334       .  D
C727        C829   1.541       .  S
C728        H733   1.083       .  S
C728        C729   1.392       .  D
C734        C821   1.512       .  S
C734        C736   1.514       .  S
C734        C738   1.518       .  S
C734        C737   1.535       .  S
C735        C739   1.547       .  S
C735        C741   1.526       .  S
C735        C740   1.596       .  S
C736        C744   1.371       .  A
C736        C739   1.372       .  A
C737        C748   1.370       .  A
C737        C740   1.418       .  A
C738        C752   1.376       .  A
C738        C741   1.388       .  A
C739        C742   1.389       .  A
C740        C746   1.408       .  A
C741        C749   1.376       .  A
C742        N743   1.368       .  A
C742        H755   1.077       .  S
N743        C762   1.462       .  S
N743        C744   1.350       .  A
C744        H745   1.073       .  S
N747        N841   1.418       .  S
C749        N750   1.350       .  A
C749        H751   1.065       .  S
N750        C774   1.434       .  S
N750        C752   1.343       .  A
C752        H753   1.078       .  S
C757        C758   1.551       .  S
C757        C763   1.564       .  S
C757        C761   1.548       .  S
C757       C1004   1.556       .  S
C758        H765   1.084       .  S
C758        C759   1.359       .  D
C759        C760   1.597       .  S
C759        C782   1.589       .  S
C760        C764   1.580       .  S
C760        C762   1.564       .  S
C760        H766   1.108       .  S
C761        H767   1.086       .  S
C761        C762   1.356       .  D
C763        H768   1.074       .  S
C763        C764   1.370       .  D
C764        C876   1.580       .  S
C769        C770   1.551       .  S
C769        C775   1.568       .  S
C769        C773   1.555       .  S
C769        C991   1.544       .  S
C770        H777   1.080       .  S
C770        C771   1.355       .  D
C771        C772   1.520       .  S
C772        C776   1.539       .  S
C772        C774   1.521       .  S
C772        H778   1.112       .  S
C773        H779   1.086       .  S
C773        C774   1.354       .  D
C775        H780   1.082       .  S
C775        C776   1.376       .  D
C776        C898   1.541       .  S
C781        C865   1.581       .  S
C781        C783   1.528       .  S
C781        C785   1.517       .  S
C781        C784   1.574       .  S
C782        C786   1.529       .  S
C782        C788   1.521       .  S
C782        C787   1.590       .  S
C783        C791   1.384       .  A
C783        C786   1.405       .  A
C784        C795   1.385       .  A
C784        C787   1.435       .  A
C785        C799   1.381       .  A
C785        C788   1.398       .  A
C786        C789   1.390       .  A
C787        C793   1.396       .  A
C788        C796   1.382       .  A
C789        N790   1.350       .  A
C789        H802   1.081       .  S
N790        C811   1.441       .  S
N790        C791   1.348       .  A
C791        H792   1.080       .  S
C793        N794   1.371       .  A
C793        H803   1.081       .  S
N794        C795   1.363       .  A
C795        H801   1.081       .  S
C796        N797   1.344       .  A
C796        H798   1.078       .  S
N797        C823   1.435       .  S
N797        C799   1.345       .  A
C799        H800   1.080       .  S
C804        C805   1.538       .  S
C804        C810   1.575       .  S
C804        C808   1.543       .  S
C804        C981   1.533       .  S
C805        H812   1.086       .  S
C805        C806   1.341       .  D
C806        C807   1.517       .  S
C806        N891   1.412       .  S
C807        C811   1.513       .  S
C807        C809   1.534       .  S
C807        H813   1.112       .  S
C808        H814   1.072       .  S
C808        C809   1.362       .  D
C809        C828   1.518       .  S
C810        H815   1.083       .  S
C810        C811   1.377       .  D
C816        C817   1.547       .  S
C816        C822   1.566       .  S
C816        C820   1.548       .  S
C816        C974   1.526       .  S
C817        H824   1.087       .  S
C817        C818   1.345       .  D
C818        C819   1.516       .  S
C818        N914   1.420       .  S
C819        C823   1.515       .  S
C819        C821   1.535       .  S
C819        H825   1.112       .  S
C820        H826   1.081       .  S
C820        C821   1.362       .  D
C822        H827   1.079       .  S
C822        C823   1.366       .  D
C828        C830   1.523       .  S
C828        C832   1.517       .  S
C828        C831   1.541       .  S
C829        C833   1.530       .  S
C829        C835   1.524       .  S
C829        C834   1.593       .  S
C830        C838   1.372       .  A
C830        C833   1.370       .  A
C831        C842   1.373       .  A
C831        C834   1.418       .  A
C832        C846   1.372       .  A
C832        C835   1.393       .  A
C833        C836   1.379       .  A
C834        C840   1.407       .  A
C835        C843   1.375       .  A
C836        N837   1.360       .  A
C836        H849   1.076       .  S
N837        C868   1.455       .  S
N837        C838   1.355       .  A
C838        H839   1.071       .  S
C840        N841   1.372       .  A
C840        H850   1.081       .  S
N841        C842   1.353       .  A
C842        H848   1.072       .  S
C843        N844   1.349       .  A
C843        H845   1.071       .  S
N844        C856   1.430       .  S
N844        C846   1.340       .  A
C846        H847   1.079       .  S
C851        C852   1.552       .  S
C851        C857   1.576       .  S
C851        C855   1.548       .  S
C851        C964   1.547       .  S
C852        H859   1.086       .  S
C852        C853   1.351       .  D
C853        C854   1.508       .  S
C854        C858   1.545       .  S
C854        C856   1.517       .  S
C854        H860   1.112       .  S
C855        H861   1.087       .  S
C855        C856   1.347       .  D
C857        H862   1.072   1_554  S
C857        C858   1.377       .  D
C858        C875   1.538       .  S
C863        C864   1.555       .  S
C863        C869   1.551       .  S
C863        C867   1.548       .  S
C863        C951   1.545       .  S
C864        H871   1.082       .  S
C864        C865   1.365       .  D
C865        C866   1.581       .  S
C866        C870   1.593       .  S
C866        C868   1.561       .  S
C866        H872   1.107       .  S
C867        H873   1.086       .  S
C867        C868   1.345       .  D
C869        H874   1.076       .  S
C869        C870   1.367       .  D
C870        C899   1.580       .  S
C875        C877   1.525       .  S
C875        C879   1.523       .  S
C875        C878   1.518       .  S
C876        C880   1.549       .  S
C876        C882   1.503       .  S
C876        C881   1.617       .  S
C877        C885   1.370       .  A
C877        C880   1.386       .  A
C878       C1232   1.362   1_554  A
C878        C881   1.422       .  A
C879        C893   1.366       .  A
C879        C882   1.396       .  A
C880        C883   1.387       .  A
C881       C1230   1.413   1_554  A
C882        C890   1.361       .  A
C883        N884   1.357       .  A
C883        H896   1.067       .  S
N884        C885   1.350       .  A
C885        H886   1.078       .  S
C887       C1224   1.413       .  A
C887        N888   1.378       .  A
C887        H897   1.080       .  S
N888        C889   1.351       .  A
N888        N911   1.418       .  S
C889       C1221   1.362       .  A
C889        H895   1.081       .  S
C890        N891   1.341       .  A
C890        H892   1.073       .  S
N891        C893   1.335       .  A
C893        H894   1.079       .  S
C898        C900   1.520       .  S
C898        C902   1.534       .  S
C898        C901   1.520       .  S
C899        C903   1.541       .  S
C899        C905   1.508       .  S
C899        C904   1.617       .  S
C900        C908   1.365       .  A
C900        C903   1.377       .  A
C901        C912   1.363       .  A
C901        C904   1.423       .  A
C902        C916   1.372       .  A
C902        C905   1.405       .  A
C903        C906   1.386       .  A
C904        C910   1.413       .  A
C905        C913   1.366       .  A
C906        N907   1.353       .  A
C906        H919   1.063       .  S
N907        C908   1.351       .  A
C908        H909   1.076       .  S
C910        N911   1.377       .  A
C910        H920   1.080       .  S
N911        C912   1.352       .  A
C912        H918   1.081       .  S
C913        N914   1.341       .  A
C913        H915   1.079       .  S
N914        C916   1.342       .  A
C916        H917   1.080       .  S
O921       C2644   1.264       .  A
O922        C930   1.289       .  A
O923        C931   1.249       .  A
O924        C932   1.267       .  A
O925       C2303   1.282       .  A
O926       C1275   1.278       .  A
O927        C930   1.271       .  A
O928       Co943   1.930       .  S
C929       O2636   1.265   1_455  A
C929       C1364   1.467       .  S
C930        C971   1.478       .  S
C931       O2297   1.282   1_455  A
C931        C994   1.492       .  S
C932       O1269   1.278       .  A
C932       C1344   1.511       .  S
O933       C1289   1.241       .  A
O933      Co1284   1.937       .  S
O934       C2319   1.237       .  A
O934       Co942   1.932       .  S
O935        C948   1.273       .  A
O935       Co943   2.006       .  S
O936        C949   1.267       .  A
O936       Co944   2.051       .  S
O937        C949   1.243       .  A
O937       Co942   1.933       .  S
O938       C2663   1.250       .  A
O938      Co1284   1.952       .  S
O939        C946   1.269       .  A
O939       Co944   2.049       .  S
O940        C947   1.242       .  A
O940       Co943   1.995       .  S
Co941      O1276   1.935       .  S
Co941      O1281   1.965       .  S
Co941       O945   2.030       .  S
Co942       O945   2.094       .  S
Co943      O2317   2.026   1_455  S
Co944       O945   1.995       .  S
O945      Co2315   2.026       .  S
C946       O1276   1.244       .  A
C946       C1327   1.481       .  S
C947       O2306   1.237       .  A
C947       C1014   1.456       .  S
C948       O2653   1.261   1_455  A
C948       C1304   1.493       .  S
C949        C954   1.478       .  S
C950        C951   1.418       .  A
C950        C955   1.398       .  A
C950       Br957   1.942       .  S
C951        C952   1.423       .  A
C952        C953   1.420       .  A
C952       Br959   1.930       .  S
C953        C954   1.409       .  A
C953       Br958   1.928       .  S
C954        C955   1.408       .  A
C955       Br956   1.928       .  S
C960        C961   1.405       .  A
C960        C965   1.416       .  A
C960      Br1310   1.922       .  S
C961        C962   1.401   1_556  A
C961       C1291   1.493       .  S
C962        C963   1.394       .  A
C962       Br969   1.939   1_455  S
C963        C964   1.440       .  A
C963       Br968   1.951       .  S
C964        C965   1.429   1_554  A
C965       Br966   1.926       .  S
Br967      C1303   1.922       .  S
C970        C971   1.419       .  A
C970        C975   1.403       .  A
C970       Br977   1.929       .  S
C971        C972   1.412       .  A
C972        C973   1.403       .  A
C973        C974   1.420       .  A
C974        C975   1.404       .  A
C975       Br976   1.930       .  S
C980        C981   1.429       .  A
C980        C985   1.408       .  A
C980       Br987   1.937       .  S
C981        C982   1.402       .  A
C982        C983   1.402       .  A
C982       Br989   1.934       .  S
C983        C984   1.422       .  A
C983       Br988   1.925       .  S
C984        C985   1.401       .  A
C984       C1289   1.477   1_554  S
C985      Br1329   1.930   1_554  S
Br986      C1328   1.930       .  S
C990        C991   1.411       .  A
C990        C995   1.406       .  A
C990       Br997   1.936       .  S
C991        C992   1.420       .  A
C992        C993   1.415       .  A
C992       Br999   1.933       .  S
C993        C994   1.408       .  A
C993      Br2370   1.916   1_455  S
C994        C995   1.419       .  A
Br998      C2365   1.916       .  S
C1000      C1001   1.419       .  A
C1000      C1005   1.414       .  A
C1001      C1002   1.422   1_554  A
C1001      C1275   1.511   1_554  S
C1002      C1003   1.412   1_556  A
C1002     Br1352   1.926       .  S
C1003      C1004   1.416       .  A
C1003     Br1008   1.932   1_554  S
C1004      C1005   1.427       .  A
C1005     Br1006   1.941       .  S
Br1009     C1345   1.926       .  S
C1010      C1011   1.414       .  A
C1010      C1015   1.404       .  A
C1010     Br1017   1.928       .  S
C1011      C1012   1.450       .  A
C1012      C1013   1.400       .  A
C1012     Br1019   1.947       .  S
C1013      C1014   1.389       .  A
C1013     Br1018   1.940       .  S
C1014      C1015   1.406       .  A
C1015     Br2388   1.928   1_455  S
Br1016     C2387   1.928       .  S
C1020      C1021   1.410       .  A
C1020      C1025   1.411       .  A
C1020     Br1713   1.930       .  S
C1021      C1022   1.417       .  A
C1021      C1272   1.480       .  S
C1022      C1023   1.402       .  A
C1022     Br1372   1.915   1_554  S
C1023      C1024   1.405       .  A
C1023     Br1028   1.937       .  S
C1024      C1025   1.420       .  A
C1025     Br1026   1.935       .  S
Br1027     C1706   1.930   1_565  S
Br1029     C1365   1.919       .  S
C1030      C1031   1.553       .  S
C1030      C1036   1.551       .  S
C1030      C1034   1.536       .  S
C1030      C1367   1.533       .  S
C1031      H1038   1.085       .  S
C1031      C1032   1.360       .  D
C1032      C1033   1.543       .  S
C1032      N1227   1.453       .  S
C1033      C1037   1.594       .  S
C1033      C1035   1.584       .  S
C1033      H1039   1.110       .  S
C1034      H1040   1.077       .  S
C1034      C1035   1.344       .  D
C1035      C1078   1.548       .  S
C1036      H1041   1.083       .  S
C1036      C1037   1.367       .  D
C1037      C1042   1.580       .  S
C1042      C1044   1.513       .  S
C1042      C1046   1.509       .  S
C1042      C1045   1.585       .  S
C1043      C1072   1.586       .  S
C1043      C1047   1.524       .  S
C1043      C1049   1.526       .  S
C1043      C1048   1.579       .  S
C1044      C1052   1.374       .  A
C1044      C1047   1.402       .  A
C1045      C2428   1.391   1_455  A
C1045      C1048   1.437       .  A
C1046      C1060   1.374       .  A
C1046      C1049   1.400       .  A
C1047      C1050   1.380       .  A
C1048      C2426   1.388   1_455  A
C1049      C1057   1.379       .  A
C1050      N1051   1.345       .  A
C1050      H1063   1.074       .  S
N1051      C1196   1.422       .  S
N1051      C1052   1.335       .  A
C1052      H1053   1.078       .  S
C1054      C2420   1.388       .  A
C1054      N1055   1.369       .  A
C1054      H1064   1.082       .  S
N1055      C1056   1.367       .  A
N1055      N1137   1.425       .  S
C1056      C2417   1.391       .  A
C1056      H1062   1.081       .  S
C1057      N1058   1.345       .  A
C1057      H1059   1.080       .  S
N1058      C1114   1.427       .  S
N1058      C1060   1.341       .  A
C1060      H1061   1.073       .  S
C1065      C1066   1.529       .  S
C1065      C1071   1.582       .  S
C1065      C1069   1.523       .  S
C1065      C1354   1.535       .  S
C1066      H1073   1.087       .  S
C1066      C1067   1.346       .  D
C1067      C1068   1.548       .  S
C1067      N1250   1.448       .  S
C1068      C1072   1.585       .  S
C1068      C1070   1.582       .  S
C1068      H1074   1.110       .  S
C1069      H1075   1.083       .  S
C1069      C1070   1.334       .  D
C1070      C1172   1.541       .  S
C1071      H1076   1.083       .  S
C1071      C1072   1.392       .  D
C1077      C1164   1.511       .  S
C1077      C1079   1.515       .  S
C1077      C1081   1.519       .  S
C1077      C1080   1.535       .  S
C1078      C1082   1.547       .  S
C1078      C1084   1.526       .  S
C1078      C1083   1.596       .  S
C1079      C1087   1.371       .  A
C1079      C1082   1.372       .  A
C1080      C1091   1.370       .  A
C1080      C1083   1.418       .  A
C1081      C1095   1.376       .  A
C1081      C1084   1.388       .  A
C1082      C1085   1.388       .  A
C1083      C1089   1.408       .  A
C1084      C1092   1.376       .  A
C1085      N1086   1.368       .  A
C1085      H1098   1.077       .  S
N1086      C1105   1.462       .  S
N1086      C1087   1.350       .  A
C1087      H1088   1.073       .  S
N1090      N1184   1.418       .  S
C1092      N1093   1.350       .  A
C1092      H1094   1.064       .  S
N1093      C1117   1.434       .  S
N1093      C1095   1.343       .  A
C1095      H1096   1.078       .  S
C1100      C1101   1.551       .  S
C1100      C1106   1.564       .  S
C1100      C1104   1.548       .  S
C1100      C1347   1.556       .  S
C1101      H1108   1.083       .  S
C1101      C1102   1.359       .  D
C1102      C1103   1.597       .  S
C1102      C1125   1.589       .  S
C1103      C1107   1.580       .  S
C1103      C1105   1.564       .  S
C1103      H1109   1.108       .  S
C1104      H1110   1.086       .  S
C1104      C1105   1.356       .  D
C1106      H1111   1.074       .  S
C1106      C1107   1.370       .  D
C1107      C1219   1.580       .  S
C1112      C1113   1.552       .  S
C1112      C1118   1.569       .  S
C1112      C1116   1.556       .  S
C1112      C1334   1.548       .  S
C1113      H1120   1.080       .  S
C1113      C1114   1.356       .  D
C1114      C1115   1.520       .  S
C1115      C1119   1.539       .  S
C1115      C1117   1.521       .  S
C1115      H1121   1.112       .  S
C1116      H1122   1.086       .  S
C1116      C1117   1.354       .  D
C1118      H1123   1.082       .  S
C1118      C1119   1.377       .  D
C1119      C1241   1.542       .  S
C1124      C1208   1.580       .  S
C1124      C1126   1.528       .  S
C1124      C1128   1.517       .  S
C1124      C1127   1.574       .  S
C1125      C1129   1.529       .  S
C1125      C1131   1.521       .  S
C1125      C1130   1.590       .  S
C1126      C1134   1.385       .  A
C1126      C1129   1.405       .  A
C1127      C1138   1.385       .  A
C1127      C1130   1.435       .  A
C1128      C1142   1.381       .  A
C1128      C1131   1.398       .  A
C1129      C1132   1.390       .  A
C1130      C1136   1.396       .  A
C1131      C1139   1.382       .  A
C1132      N1133   1.350       .  A
C1132      H1145   1.080       .  S
N1133      C1154   1.441       .  S
N1133      C1134   1.348       .  A
C1134      H1135   1.079       .  S
C1136      N1137   1.371       .  A
C1136      H1146   1.081       .  S
N1137      C1138   1.363       .  A
C1138      H1144   1.081       .  S
C1139      N1140   1.344       .  A
C1139      H1141   1.078       .  S
N1140      C1166   1.435       .  S
N1140      C1142   1.344       .  A
C1142      H1143   1.080       .  S
C1147      C1148   1.538       .  S
C1147      C1153   1.575       .  S
C1147      C1151   1.543       .  S
C1147      C1324   1.533       .  S
C1148      H1155   1.086       .  S
C1148      C1149   1.341       .  D
C1149      C1150   1.517       .  S
C1149      N1234   1.412       .  S
C1150      C1154   1.513       .  S
C1150      C1152   1.534       .  S
C1150      H1156   1.112       .  S
C1151      H1157   1.072       .  S
C1151      C1152   1.362       .  D
C1152      C1171   1.518       .  S
C1153      H1158   1.083       .  S
C1153      C1154   1.377       .  D
C1159      C1160   1.547       .  S
C1159      C1165   1.566       .  S
C1159      C1163   1.548       .  S
C1159      C1317   1.526       .  S
C1160      H1167   1.087       .  S
C1160      C1161   1.345       .  D
C1161      C1162   1.516       .  S
C1161      N1257   1.420       .  S
C1162      C1166   1.515       .  S
C1162      C1164   1.535       .  S
C1162      H1168   1.112       .  S
C1163      H1169   1.081       .  S
C1163      C1164   1.362       .  D
C1165      H1170   1.079       .  S
C1165      C1166   1.366       .  D
C1171      C1173   1.523       .  S
C1171      C1175   1.517       .  S
C1171      C1174   1.541       .  S
C1172      C1176   1.530       .  S
C1172      C1178   1.524       .  S
C1172      C1177   1.592       .  S
C1173      C1181   1.372       .  A
C1173      C1176   1.370       .  A
C1174      C1185   1.373       .  A
C1174      C1177   1.418       .  A
C1175      C1189   1.372       .  A
C1175      C1178   1.393       .  A
C1176      C1179   1.378       .  A
C1177      C1183   1.407       .  A
C1178      C1186   1.375       .  A
C1179      N1180   1.360       .  A
C1179      H1192   1.076       .  S
N1180      C1211   1.455       .  S
N1180      C1181   1.355       .  A
C1181      H1182   1.070       .  S
C1183      N1184   1.372       .  A
C1183      H1193   1.081       .  S
N1184      C1185   1.353       .  A
C1185      H1191   1.072       .  S
C1186      N1187   1.349       .  A
C1186      H1188   1.071       .  S
N1187      C1199   1.430       .  S
N1187      C1189   1.340       .  A
C1189      H1190   1.079       .  S
C1194      C1195   1.551       .  S
C1194      C1200   1.576       .  S
C1194      C1198   1.548       .  S
C1194      C1307   1.547       .  S
C1195      H1202   1.086       .  S
C1195      C1196   1.351       .  D
C1196      C1197   1.508       .  S
C1197      C1201   1.545       .  S
C1197      C1199   1.517       .  S
C1197      H1203   1.112       .  S
C1198      H1204   1.087       .  S
C1198      C1199   1.347       .  D
C1200      H1205   1.072       .  S
C1200      C1201   1.377       .  D
C1201      C1218   1.538       .  S
C1206      C1207   1.554       .  S
C1206      C1212   1.550       .  S
C1206      C1210   1.548       .  S
C1206      C1294   1.541       .  S
C1207      H1214   1.082       .  S
C1207      C1208   1.364       .  D
C1208      C1209   1.581       .  S
C1209      C1213   1.593       .  S
C1209      C1211   1.561       .  S
C1209      H1215   1.107       .  S
C1210      H1216   1.086       .  S
C1210      C1211   1.345       .  D
C1212      H1217   1.076       .  S
C1212      C1213   1.366       .  D
C1213      C1242   1.579       .  S
C1218      C1220   1.526       .  S
C1218      C1222   1.523       .  S
C1218      C1221   1.518       .  S
C1219      C1223   1.549       .  S
C1219      C1225   1.503       .  S
C1219      C1224   1.617       .  S
C1220      C1228   1.370       .  A
C1220      C1223   1.386       .  A
C1221      C1224   1.422       .  A
C1222      C1236   1.366       .  A
C1222      C1225   1.396       .  A
C1223      C1226   1.387       .  A
C1225      C1233   1.361       .  A
C1226      N1227   1.357       .  A
C1226      H1239   1.067       .  S
N1227      C1228   1.350       .  A
C1228      H1229   1.078       .  S
C1230      N1231   1.378       .  A
C1230      H1240   1.080       .  S
N1231      C1232   1.351       .  A
N1231      N1254   1.418       .  S
C1232      H1238   1.081       .  S
C1233      N1234   1.341       .  A
C1233      H1235   1.073       .  S
N1234      C1236   1.335       .  A
C1236      H1237   1.079       .  S
C1241      C1243   1.520       .  S
C1241      C1245   1.534       .  S
C1241      C1244   1.520       .  S
C1242      C1246   1.541       .  S
C1242      C1248   1.507       .  S
C1242      C1247   1.617       .  S
C1243      C1251   1.364       .  A
C1243      C1246   1.377       .  A
C1244      C1255   1.363       .  A
C1244      C1247   1.423       .  A
C1245      C1259   1.372       .  A
C1245      C1248   1.405       .  A
C1246      C1249   1.386       .  A
C1247      C1253   1.413       .  A
C1248      C1256   1.365       .  A
C1249      N1250   1.353       .  A
C1249      H1262   1.062       .  S
N1250      C1251   1.351       .  A
C1251      H1252   1.076       .  S
C1253      N1254   1.377       .  A
C1253      H1263   1.080       .  S
N1254      C1255   1.352       .  A
C1255      H1261   1.081       .  S
C1256      N1257   1.341       .  A
C1256      H1258   1.079       .  S
N1257      C1259   1.342       .  A
C1259      H1260   1.080       .  S
O1264      C2301   1.265       .  A
O1265      C1273   1.289       .  A
O1266      C1274   1.258       .  A
O1267      C1275   1.267       .  A
O1268      C2646   1.282       .  A
O1270      C1273   1.271       .  A
O1271     Co1286   1.931       .  S
C1272      O2293   1.288   1_455  A
C1273      C1314   1.478       .  S
C1274      O2640   1.283   1_455  A
C1274      C1337   1.503       .  S
O1277      C2662   1.229       .  A
O1277     Co1285   1.915       .  S
O1278      C1291   1.273       .  A
O1278     Co1286   2.006       .  S
O1279      C1292   1.268       .  A
O1279     Co1287   2.042       .  S
O1280      C1292   1.245       .  A
O1280     Co1285   1.927       .  S
O1281      C2320   1.261       .  A
O1282      C1289   1.268       .  A
O1282     Co1287   2.048       .  S
O1283      C1290   1.242       .  A
O1283     Co1286   1.995       .  S
Co1284     O1288   2.051       .  S
Co1285     O1288   2.054       .  S
Co1286     O2660   2.026   1_455  S
Co1287     O1288   1.993       .  S
O1288     Co2658   2.004       .  S
C1290      O2649   1.237       .  A
C1290      C1357   1.456       .  S
C1291      O2310   1.261   1_455  A
C1292      C1297   1.470       .  S
C1293      C1294   1.418       .  A
C1293      C1298   1.395       .  A
C1293     Br1300   1.941       .  S
C1294      C1295   1.423       .  A
C1295      C1296   1.418       .  A
C1295     Br1302   1.931       .  S
C1296      C1297   1.409       .  A
C1296     Br1301   1.929       .  S
C1297      C1298   1.407       .  A
C1298     Br1299   1.931       .  S
C1303      C1304   1.405       .  A
C1303      C1308   1.416       .  A
C1304      C1305   1.401       .  A
C1305      C1306   1.394       .  A
C1305     Br1312   1.939   1_455  S
C1306      C1307   1.440       .  A
C1306     Br1311   1.951       .  S
C1307      C1308   1.429       .  A
C1308     Br1309   1.925       .  S
C1313      C1314   1.419       .  A
C1313      C1318   1.403       .  A
C1313     Br1320   1.929       .  S
C1314      C1315   1.412       .  A
C1315      C1316   1.403       .  A
C1316      C1317   1.420       .  A
C1317      C1318   1.404       .  A
C1318     Br1319   1.930       .  S
C1323      C1324   1.429       .  A
C1323      C1328   1.409       .  A
C1323     Br1330   1.937       .  S
C1324      C1325   1.401       .  A
C1325      C1326   1.402       .  A
C1325     Br1332   1.936       .  S
C1326      C1327   1.423       .  A
C1326     Br1331   1.921       .  S
C1327      C1328   1.402       .  A
C1333      C1334   1.411       .  A
C1333      C1338   1.409       .  A
C1333     Br1340   1.938       .  S
C1334      C1335   1.420       .  A
C1335      C1336   1.417       .  A
C1335     Br1342   1.933       .  S
C1336      C1337   1.409       .  A
C1336     Br2713   1.915   1_455  S
C1337      C1338   1.421       .  A
Br1341     C2708   1.916       .  S
C1343      C1344   1.419       .  A
C1343      C1348   1.414       .  A
C1344      C1345   1.422       .  A
C1345      C1346   1.412       .  A
C1346      C1347   1.416       .  A
C1346     Br1351   1.932       .  S
C1347      C1348   1.427       .  A
C1348     Br1349   1.941       .  S
C1353      C1354   1.414       .  A
C1353      C1358   1.404       .  A
C1353     Br1360   1.928       .  S
C1354      C1355   1.450       .  A
C1355      C1356   1.400       .  A
C1355     Br1362   1.947       .  S
C1356      C1357   1.389       .  A
C1356     Br1361   1.940       .  S
C1357      C1358   1.406       .  A
C1358     Br2731   1.928   1_455  S
Br1359     C2730   1.926       .  S
C1363      C1364   1.404       .  A
C1363      C1368   1.406       .  A
C1363     Br2056   1.931       .  S
C1364      C1365   1.413       .  A
C1365      C1366   1.398       .  A
C1366      C1367   1.406       .  A
C1366     Br1371   1.936       .  S
C1367      C1368   1.421       .  A
C1368     Br1369   1.933       .  S
Br1370     C2049   1.931   1_565  S
C1373      C1374   1.553       .  S
C1373      C1379   1.553       .  S
C1373      C1377   1.536       .  S
C1373      C1710   1.538       .  S
C1374      H1381   1.085       .  S
C1374      C1375   1.360       .  D
C1375      C1376   1.542       .  S
C1375      N1570   1.454       .  S
C1376      C1380   1.594       .  S
C1376      C1378   1.583       .  S
C1376      H1382   1.110       .  S
C1377      H1383   1.077       .  S
C1377      C1378   1.344       .  D
C1378      C1421   1.549       .  S
C1379      H1384   1.083       .  S
C1379      C1380   1.369       .  D
C1380      C1385   1.582       .  S
C1385      C1387   1.513       .  S
C1385      C1389   1.510       .  S
C1385      C1388   1.585       .  S
C1386      C1415   1.587       .  S
C1386      C1390   1.524       .  S
C1386      C1392   1.526       .  S
C1386      C1391   1.579       .  S
C1387      C1395   1.374       .  A
C1387      C1390   1.403       .  A
C1388      C1391   1.438       .  A
C1389      C1403   1.374       .  A
C1389      C1392   1.400       .  A
C1390      C1393   1.380       .  A
C1392      C1400   1.379       .  A
C1393      N1394   1.345       .  A
C1393      H1406   1.074       .  S
N1394      C1539   1.422       .  S
N1394      C1395   1.335       .  A
C1395      H1396   1.078       .  S
C1397      N1398   1.369       .  A
C1397      H1407   1.082       .  S
N1398      C1399   1.367       .  A
N1398      N1480   1.425       .  S
C1399      H1405   1.081       .  S
C1400      N1401   1.345       .  A
C1400      H1402   1.080       .  S
N1401      C1457   1.426       .  S
N1401      C1403   1.341       .  A
C1403      H1404   1.073       .  S
C1408      C1409   1.529       .  S
C1408      C1414   1.582       .  S
C1408      C1412   1.523       .  S
C1408      C1697   1.535       .  S
C1409      H1416   1.087       .  S
C1409      C1410   1.347       .  D
C1410      C1411   1.548       .  S
C1410      N1593   1.448       .  S
C1411      C1415   1.585       .  S
C1411      C1413   1.582       .  S
C1411      H1417   1.110       .  S
C1412      H1418   1.083       .  S
C1412      C1413   1.334       .  D
C1413      C1515   1.541       .  S
C1414      H1419   1.083       .  S
C1414      C1415   1.392       .  D
C1420      C1507   1.512       .  S
C1420      C1422   1.514       .  S
C1420      C1424   1.518       .  S
C1420      C1423   1.535       .  S
C1421      C1425   1.547       .  S
C1421      C1427   1.526       .  S
C1421      C1426   1.596       .  S
C1422      C1430   1.371       .  A
C1422      C1425   1.372       .  A
C1423      C1434   1.370       .  A
C1423      C1426   1.418       .  A
C1424      C1438   1.376       .  A
C1424      C1427   1.388       .  A
C1425      C1428   1.389       .  A
C1426      C1432   1.408       .  A
C1427      C1435   1.376       .  A
C1428      N1429   1.368       .  A
C1428      H1441   1.077       .  S
N1429      C1448   1.462       .  S
N1429      C1430   1.350       .  A
C1430      H1431   1.073       .  S
C1432      N2119   1.373   1_545  A
C1432      H2128   1.079       .  S
N1433      C2118   1.373       .  A
N1433      C2120   1.353       .  A
N1433      N1527   1.418       .  S
C1434      N2119   1.353   1_545  A
C1434      H2126   1.079   1_545  S
C1435      N1436   1.350       .  A
C1435      H1437   1.065       .  S
N1436      C1460   1.434       .  S
N1436      C1438   1.343       .  A
C1438      H1439   1.078       .  S
H1440      C2120   1.079       .  S
H1442      C2118   1.079       .  S
C1443      C1444   1.551       .  S
C1443      C1449   1.564       .  S
C1443      C1447   1.548       .  S
C1443      C1690   1.556       .  S
C1444      H1451   1.084       .  S
C1444      C1445   1.359       .  D
C1445      C1446   1.597       .  S
C1445      C1468   1.589       .  S
C1446      C1450   1.580       .  S
C1446      C1448   1.564       .  S
C1446      H1452   1.108       .  S
C1447      H1453   1.086       .  S
C1447      C1448   1.356       .  D
C1449      H1454   1.074       .  S
C1449      C1450   1.370       .  D
C1450      C1562   1.580       .  S
C1455      C1456   1.551       .  S
C1455      C1461   1.568       .  S
C1455      C1459   1.555       .  S
C1455      C1677   1.544       .  S
C1456      H1463   1.080       .  S
C1456      C1457   1.355       .  D
C1457      C1458   1.520       .  S
C1458      C1462   1.539       .  S
C1458      C1460   1.521       .  S
C1458      H1464   1.112       .  S
C1459      H1465   1.086       .  S
C1459      C1460   1.354       .  D
C1461      H1466   1.082       .  S
C1461      C1462   1.376       .  D
C1462      C1584   1.541       .  S
C1467      C1551   1.581       .  S
C1467      C1469   1.528       .  S
C1467      C1471   1.517       .  S
C1467      C1470   1.574       .  S
C1468      C1472   1.529       .  S
C1468      C1474   1.521       .  S
C1468      C1473   1.590       .  S
C1469      C1477   1.384       .  A
C1469      C1472   1.405       .  A
C1470      C1481   1.385       .  A
C1470      C1473   1.435       .  A
C1471      C1485   1.381       .  A
C1471      C1474   1.398       .  A
C1472      C1475   1.390       .  A
C1473      C1479   1.396       .  A
C1474      C1482   1.382       .  A
C1475      N1476   1.350       .  A
C1475      H1488   1.080       .  S
N1476      C1497   1.441       .  S
N1476      C1477   1.348       .  A
C1477      H1478   1.080       .  S
C1479      N1480   1.371       .  A
C1479      H1489   1.081       .  S
N1480      C1481   1.363       .  A
C1481      H1487   1.081       .  S
C1482      N1483   1.344       .  A
C1482      H1484   1.078       .  S
N1483      C1509   1.435       .  S
N1483      C1485   1.345       .  A
C1485      H1486   1.080       .  S
C1490      C1491   1.538       .  S
C1490      C1496   1.575       .  S
C1490      C1494   1.543       .  S
C1490      C1667   1.533       .  S
C1491      H1498   1.086       .  S
C1491      C1492   1.341       .  D
C1492      C1493   1.517       .  S
C1492      N1577   1.412       .  S
C1493      C1497   1.513       .  S
C1493      C1495   1.534       .  S
C1493      H1499   1.112       .  S
C1494      H1500   1.072       .  S
C1494      C1495   1.362       .  D
C1495      C1514   1.518       .  S
C1496      H1501   1.083       .  S
C1496      C1497   1.377       .  D
C1502      C1503   1.547       .  S
C1502      C1508   1.566       .  S
C1502      C1506   1.548       .  S
C1502      C1660   1.526       .  S
C1503      H1510   1.087       .  S
C1503      C1504   1.345       .  D
C1504      C1505   1.516       .  S
C1504      N1600   1.420       .  S
C1505      C1509   1.515       .  S
C1505      C1507   1.535       .  S
C1505      H1511   1.112       .  S
C1506      H1512   1.081       .  S
C1506      C1507   1.362       .  D
C1508      H1513   1.079       .  S
C1508      C1509   1.366       .  D
C1514      C1516   1.523       .  S
C1514      C1518   1.517       .  S
C1514      C1517   1.541       .  S
C1515      C1519   1.530       .  S
C1515      C1521   1.524       .  S
C1515      C1520   1.593       .  S
C1516      C1524   1.372       .  A
C1516      C1519   1.370       .  A
C1517      C1528   1.373       .  A
C1517      C1520   1.418       .  A
C1518      C1532   1.372       .  A
C1518      C1521   1.393       .  A
C1519      C1522   1.379       .  A
C1520      C1526   1.407       .  A
C1521      C1529   1.375       .  A
C1522      N1523   1.360       .  A
C1522      H1535   1.076       .  S
N1523      C1554   1.455       .  S
N1523      C1524   1.355       .  A
C1524      H1525   1.071       .  S
C1526      N1527   1.372       .  A
C1526      H1536   1.081       .  S
N1527      C1528   1.353       .  A
C1528      H1534   1.072       .  S
C1529      N1530   1.349       .  A
C1529      H1531   1.071       .  S
N1530      C1542   1.430       .  S
N1530      C1532   1.340       .  A
C1532      H1533   1.079       .  S
C1537      C1538   1.552       .  S
C1537      C1543   1.576       .  S
C1537      C1541   1.548       .  S
C1537      C1650   1.547       .  S
C1538      H1545   1.086       .  S
C1538      C1539   1.351       .  D
C1539      C1540   1.508       .  S
C1540      C1544   1.545       .  S
C1540      C1542   1.517       .  S
C1540      H1546   1.112       .  S
C1541      H1547   1.087       .  S
C1541      C1542   1.347       .  D
C1543      H1548   1.072   1_554  S
C1543      C1544   1.377       .  D
C1544      C1561   1.538       .  S
C1549      C1550   1.555       .  S
C1549      C1555   1.551       .  S
C1549      C1553   1.548       .  S
C1549      C1637   1.545       .  S
C1550      H1557   1.082       .  S
C1550      C1551   1.365       .  D
C1551      C1552   1.581       .  S
C1552      C1556   1.593       .  S
C1552      C1554   1.561       .  S
C1552      H1558   1.107       .  S
C1553      H1559   1.086       .  S
C1553      C1554   1.345       .  D
C1555      H1560   1.076       .  S
C1555      C1556   1.367       .  D
C1556      C1585   1.580       .  S
C1561      C1563   1.525       .  S
C1561      C1565   1.523       .  S
C1561      C1564   1.518       .  S
C1562      C1566   1.549       .  S
C1562      C1568   1.503       .  S
C1562      C1567   1.617       .  S
C1563      C1571   1.370       .  A
C1563      C1566   1.386       .  A
C1564      C1918   1.362   1_554  A
C1564      C1567   1.422       .  A
C1565      C1579   1.366       .  A
C1565      C1568   1.396       .  A
C1566      C1569   1.387       .  A
C1567      C1916   1.413   1_554  A
C1568      C1576   1.361       .  A
C1569      N1570   1.357       .  A
C1569      H1582   1.067       .  S
N1570      C1571   1.350       .  A
C1571      H1572   1.078       .  S
C1573      C1910   1.413       .  A
C1573      N1574   1.378       .  A
C1573      H1583   1.080       .  S
N1574      C1575   1.351       .  A
N1574      N1597   1.418       .  S
C1575      C1907   1.362       .  A
C1575      H1581   1.081       .  S
C1576      N1577   1.341       .  A
C1576      H1578   1.073       .  S
N1577      C1579   1.335       .  A
C1579      H1580   1.079       .  S
C1584      C1586   1.520       .  S
C1584      C1588   1.534       .  S
C1584      C1587   1.520       .  S
C1585      C1589   1.541       .  S
C1585      C1591   1.508       .  S
C1585      C1590   1.617       .  S
C1586      C1594   1.365       .  A
C1586      C1589   1.377       .  A
C1587      C1598   1.363       .  A
C1587      C1590   1.423       .  A
C1588      C1602   1.372       .  A
C1588      C1591   1.405       .  A
C1589      C1592   1.386       .  A
C1590      C1596   1.413       .  A
C1591      C1599   1.366       .  A
C1592      N1593   1.353       .  A
C1592      H1605   1.063       .  S
N1593      C1594   1.351       .  A
C1594      H1595   1.076       .  S
C1596      N1597   1.377       .  A
C1596      H1606   1.080       .  S
N1597      C1598   1.352       .  A
C1598      H1604   1.081       .  S
C1599      N1600   1.341       .  A
C1599      H1601   1.079       .  S
N1600      C1602   1.342       .  A
C1602      H1603   1.080       .  S
O1607     Co2656   2.006   1_554  S
O1608      C1616   1.289   1_565  A
O1608     Co2314   2.061       .  S
O1609      C1617   1.249       .  A
O1609     Co2315   1.924   1_545  S
O1610      C1618   1.267       .  A
O1610     Co2316   1.977   1_545  S
O1611     Co2314   2.078   1_545  S
O1612      C1961   1.278       .  A
O1612     Co2656   2.047   1_545  S
O1613      C1616   1.271       .  A
O1613     Co2316   1.886   1_545  S
O1614      C2301   1.247       .  A
O1614     Co1629   1.930       .  S
C1615      O2300   1.247       .  A
C1615      C2050   1.467   1_565  S
C1616      C1657   1.478       .  S
C1617      C1680   1.492       .  S
C1618      O1955   1.278       .  A
C1618      C2030   1.511       .  S
O1619      C1975   1.241       .  A
O1619     Co1970   1.937       .  S
O1620     Co1628   1.932   1_455  S
O1621      C1634   1.273       .  A
O1621     Co1629   2.006       .  S
O1622      C1635   1.267       .  A
O1622     Co1630   2.051       .  S
O1623      C1635   1.243       .  A
O1623     Co1628   1.933       .  S
O1624     Co1970   1.952       .  S
O1625      C1632   1.269       .  A
O1625     Co1630   2.049       .  S
O1626      C1633   1.242       .  A
O1626     Co1629   1.995       .  S
Co1627     O2636   2.007       .  S
Co1627     O2641   2.047       .  S
Co1627     O1962   1.935       .  S
Co1627     O1967   1.965       .  S
Co1627     O1631   2.030       .  S
Co1628     O2294   2.061       .  S
Co1628     O2297   2.078       .  S
Co1628     O1631   2.094       .  S
Co1629     O2295   1.924       .  S
Co1630     O2296   1.977       .  S
Co1630     O2299   1.886       .  S
Co1630     O1631   1.995       .  S
C1632      O1962   1.244       .  A
C1632      C2013   1.481       .  S
C1633      C1700   1.456       .  S
C1634      C1990   1.493       .  S
C1635      C1640   1.478       .  S
C1636      C1637   1.418       .  A
C1636      C1641   1.398       .  A
C1636     Br1643   1.942       .  S
C1637      C1638   1.423       .  A
C1638      C1639   1.420       .  A
C1638     Br1645   1.930       .  S
C1639      C1640   1.409       .  A
C1639     Br1644   1.928       .  S
C1640      C1641   1.408       .  A
C1641     Br1642   1.928       .  S
C1646      C1647   1.405       .  A
C1646      C1651   1.416       .  A
C1646     Br1996   1.922       .  S
C1647      C1648   1.401   1_556  A
C1647      C1977   1.493       .  S
C1648      C1649   1.394       .  A
C1648     Br1655   1.939       .  S
C1649      C1650   1.440       .  A
C1649     Br1654   1.951       .  S
C1650      C1651   1.429   1_554  A
C1651     Br1652   1.926       .  S
Br1653     C1989   1.922       .  S
C1656      C1657   1.419       .  A
C1656      C1661   1.403       .  A
C1656     Br1663   1.929       .  S
C1657      C1658   1.412       .  A
C1658      C1659   1.403       .  A
C1658     Br2351   1.936   1_545  S
C1659      C1660   1.420       .  A
C1659     Br2350   1.937       .  S
C1660      C1661   1.404       .  A
C1661     Br1662   1.930       .  S
Br1664     C2345   1.937       .  S
Br1665     C2344   1.936       .  S
C1666      C1667   1.429       .  A
C1666      C1671   1.408       .  A
C1666     Br1673   1.937       .  S
C1667      C1668   1.402       .  A
C1668      C1669   1.402       .  A
C1668     Br1675   1.934       .  S
C1669      C1670   1.422       .  A
C1669     Br1674   1.925       .  S
C1670      C1671   1.401       .  A
C1670      C1975   1.477   1_554  S
C1671     Br2015   1.930   1_554  S
Br1672     C2014   1.930       .  S
C1676      C1677   1.411       .  A
C1676      C1681   1.406       .  A
C1676     Br1683   1.936       .  S
C1677      C1678   1.420       .  A
C1678      C1679   1.415       .  A
C1678     Br1685   1.933       .  S
C1679      C1680   1.408       .  A
C1680      C1681   1.419       .  A
C1681     Br2368   1.924       .  S
Br1682     C2367   1.924       .  S
C1686      C1687   1.419       .  A
C1686      C1691   1.414       .  A
C1686     Br2379   1.935       .  S
C1687      C1688   1.422   1_554  A
C1687      C1961   1.511   1_554  S
C1688      C1689   1.412   1_556  A
C1688     Br2038   1.926       .  S
C1689      C1690   1.416       .  A
C1689     Br1694   1.932   1_554  S
C1690      C1691   1.427       .  A
C1691     Br1692   1.941       .  S
Br1693     C2372   1.935       .  S
Br1695     C2031   1.926       .  S
C1696      C1697   1.414       .  A
C1696      C1701   1.404       .  A
C1696     Br1703   1.928       .  S
C1697      C1698   1.450       .  A
C1698      C1699   1.400       .  A
C1698     Br1705   1.947       .  S
C1699      C1700   1.389       .  A
C1699     Br1704   1.940       .  S
C1700      C1701   1.406       .  A
C1706      C1707   1.410       .  A
C1706      C1711   1.411       .  A
C1707      C1708   1.417       .  A
C1707      C1958   1.480   1_545  S
C1708      C1709   1.402       .  A
C1708     Br2058   1.915   1_554  S
C1709      C1710   1.405       .  A
C1709     Br1714   1.937       .  S
C1710      C1711   1.420       .  A
C1711     Br1712   1.935       .  S
Br1715     C2051   1.919       .  S
C1716      C1717   1.553       .  S
C1716      C1722   1.551       .  S
C1716      C1720   1.536       .  S
C1716      C2053   1.533       .  S
C1717      H1724   1.085       .  S
C1717      C1718   1.360       .  D
C1718      C1719   1.543       .  S
C1718      N1913   1.453       .  S
C1719      C1723   1.594       .  S
C1719      C1721   1.584       .  S
C1719      H1725   1.110       .  S
C1720      H1726   1.077       .  S
C1720      C1721   1.344       .  D
C1721      C1764   1.548       .  S
C1722      H1727   1.083       .  S
C1722      C1723   1.367       .  D
C1723      C1728   1.580       .  S
C1728      C1730   1.513       .  S
C1728      C1732   1.509       .  S
C1728      C1731   1.585       .  S
C1729      C1758   1.586       .  S
C1729      C1733   1.524       .  S
C1729      C1735   1.526       .  S
C1729      C1734   1.579       .  S
C1730      C1738   1.374       .  A
C1730      C1733   1.402       .  A
C1731      C1734   1.437       .  A
C1732      C1746   1.374       .  A
C1732      C1735   1.400       .  A
C1733      C1736   1.380       .  A
C1735      C1743   1.379       .  A
C1736      N1737   1.345       .  A
C1736      H1749   1.074       .  S
N1737      C1882   1.422       .  S
N1737      C1738   1.335       .  A
C1738      H1739   1.078       .  S
C1740      N1741   1.369       .  A
C1740      H1750   1.082       .  S
N1741      C1742   1.367       .  A
N1741      N1823   1.425       .  S
C1742      H1748   1.081       .  S
C1743      N1744   1.345       .  A
C1743      H1745   1.080       .  S
N1744      C1800   1.427       .  S
N1744      C1746   1.341       .  A
C1746      H1747   1.073       .  S
C1751      C1752   1.529       .  S
C1751      C1757   1.582       .  S
C1751      C1755   1.523       .  S
C1751      C2040   1.535       .  S
C1752      H1759   1.087       .  S
C1752      C1753   1.346       .  D
C1753      C1754   1.548       .  S
C1753      N1936   1.448       .  S
C1754      C1758   1.585       .  S
C1754      C1756   1.582       .  S
C1754      H1760   1.110       .  S
C1755      H1761   1.083       .  S
C1755      C1756   1.334       .  D
C1756      C1858   1.541       .  S
C1757      H1762   1.083       .  S
C1757      C1758   1.392       .  D
C1763      C1850   1.511       .  S
C1763      C1765   1.515       .  S
C1763      C1767   1.519       .  S
C1763      C1766   1.535       .  S
C1764      C1768   1.547       .  S
C1764      C1770   1.526       .  S
C1764      C1769   1.596       .  S
C1765      C1773   1.371       .  A
C1765      C1768   1.372       .  A
C1766      C1777   1.370       .  A
C1766      C1769   1.418       .  A
C1767      C1781   1.376       .  A
C1767      C1770   1.388       .  A
C1768      C1771   1.388       .  A
C1769      C1775   1.408       .  A
C1770      C1778   1.376       .  A
C1771      N1772   1.368       .  A
C1771      H1784   1.077       .  S
N1772      C1791   1.462       .  S
N1772      C1773   1.350       .  A
C1773      H1774   1.073       .  S
C1775      N2462   1.373   1_545  A
C1775      H2471   1.079       .  S
N1776      C2461   1.373       .  A
N1776      C2463   1.353       .  A
N1776      N1870   1.418       .  S
C1777      N2462   1.353   1_545  A
C1777      H2469   1.079   1_545  S
C1778      N1779   1.350       .  A
C1778      H1780   1.064       .  S
N1779      C1803   1.434       .  S
N1779      C1781   1.343       .  A
C1781      H1782   1.078       .  S
H1783      C2463   1.079       .  S
H1785      C2461   1.079       .  S
C1786      C1787   1.551       .  S
C1786      C1792   1.564       .  S
C1786      C1790   1.548       .  S
C1786      C2033   1.556       .  S
C1787      H1794   1.083       .  S
C1787      C1788   1.359       .  D
C1788      C1789   1.597       .  S
C1788      C1811   1.589       .  S
C1789      C1793   1.580       .  S
C1789      C1791   1.564       .  S
C1789      H1795   1.108       .  S
C1790      H1796   1.086       .  S
C1790      C1791   1.356       .  D
C1792      H1797   1.074       .  S
C1792      C1793   1.370       .  D
C1793      C1905   1.580       .  S
C1798      C1799   1.552       .  S
C1798      C1804   1.569       .  S
C1798      C1802   1.556       .  S
C1798      C2020   1.548       .  S
C1799      H1806   1.080       .  S
C1799      C1800   1.356       .  D
C1800      C1801   1.520       .  S
C1801      C1805   1.539       .  S
C1801      C1803   1.521       .  S
C1801      H1807   1.112       .  S
C1802      H1808   1.086       .  S
C1802      C1803   1.354       .  D
C1804      H1809   1.082       .  S
C1804      C1805   1.377       .  D
C1805      C1927   1.542       .  S
C1810      C1894   1.580       .  S
C1810      C1812   1.528       .  S
C1810      C1814   1.517       .  S
C1810      C1813   1.574       .  S
C1811      C1815   1.529       .  S
C1811      C1817   1.521       .  S
C1811      C1816   1.590       .  S
C1812      C1820   1.385       .  A
C1812      C1815   1.405       .  A
C1813      C1824   1.385       .  A
C1813      C1816   1.435       .  A
C1814      C1828   1.381       .  A
C1814      C1817   1.398       .  A
C1815      C1818   1.390       .  A
C1816      C1822   1.396       .  A
C1817      C1825   1.382       .  A
C1818      N1819   1.350       .  A
C1818      H1831   1.080       .  S
N1819      C1840   1.441       .  S
N1819      C1820   1.348       .  A
C1820      H1821   1.079       .  S
C1822      N1823   1.371       .  A
C1822      H1832   1.081       .  S
N1823      C1824   1.363       .  A
C1824      H1830   1.081       .  S
C1825      N1826   1.344       .  A
C1825      H1827   1.078       .  S
N1826      C1852   1.435       .  S
N1826      C1828   1.344       .  A
C1828      H1829   1.080       .  S
C1833      C1834   1.538       .  S
C1833      C1839   1.575       .  S
C1833      C1837   1.543       .  S
C1833      C2010   1.533       .  S
C1834      H1841   1.086       .  S
C1834      C1835   1.341       .  D
C1835      C1836   1.517       .  S
C1835      N1920   1.412       .  S
C1836      C1840   1.513       .  S
C1836      C1838   1.534       .  S
C1836      H1842   1.112       .  S
C1837      H1843   1.072       .  S
C1837      C1838   1.362       .  D
C1838      C1857   1.518       .  S
C1839      H1844   1.083       .  S
C1839      C1840   1.377       .  D
C1845      C1846   1.547       .  S
C1845      C1851   1.566       .  S
C1845      C1849   1.548       .  S
C1845      C2003   1.526       .  S
C1846      H1853   1.087       .  S
C1846      C1847   1.345       .  D
C1847      C1848   1.516       .  S
C1847      N1943   1.420       .  S
C1848      C1852   1.515       .  S
C1848      C1850   1.535       .  S
C1848      H1854   1.112       .  S
C1849      H1855   1.081       .  S
C1849      C1850   1.362       .  D
C1851      H1856   1.079       .  S
C1851      C1852   1.366       .  D
C1857      C1859   1.523       .  S
C1857      C1861   1.517       .  S
C1857      C1860   1.541       .  S
C1858      C1862   1.530       .  S
C1858      C1864   1.524       .  S
C1858      C1863   1.592       .  S
C1859      C1867   1.372       .  A
C1859      C1862   1.370       .  A
C1860      C1871   1.373       .  A
C1860      C1863   1.418       .  A
C1861      C1875   1.372       .  A
C1861      C1864   1.393       .  A
C1862      C1865   1.378       .  A
C1863      C1869   1.407       .  A
C1864      C1872   1.375       .  A
C1865      N1866   1.360       .  A
C1865      H1878   1.076       .  S
N1866      C1897   1.455       .  S
N1866      C1867   1.355       .  A
C1867      H1868   1.070       .  S
C1869      N1870   1.372       .  A
C1869      H1879   1.081       .  S
N1870      C1871   1.353       .  A
C1871      H1877   1.072       .  S
C1872      N1873   1.349       .  A
C1872      H1874   1.071       .  S
N1873      C1885   1.430       .  S
N1873      C1875   1.340       .  A
C1875      H1876   1.079       .  S
C1880      C1881   1.551       .  S
C1880      C1886   1.576       .  S
C1880      C1884   1.549       .  S
C1880      C1993   1.547       .  S
C1881      H1888   1.086       .  S
C1881      C1882   1.351       .  D
C1882      C1883   1.508       .  S
C1883      C1887   1.545       .  S
C1883      C1885   1.517       .  S
C1883      H1889   1.112       .  S
C1884      H1890   1.087       .  S
C1884      C1885   1.347       .  D
C1886      H1891   1.072       .  S
C1886      C1887   1.377       .  D
C1887      C1904   1.538       .  S
C1892      C1893   1.554       .  S
C1892      C1898   1.550       .  S
C1892      C1896   1.548       .  S
C1892      C1980   1.541       .  S
C1893      H1900   1.082       .  S
C1893      C1894   1.364       .  D
C1894      C1895   1.581       .  S
C1895      C1899   1.593       .  S
C1895      C1897   1.561       .  S
C1895      H1901   1.107       .  S
C1896      H1902   1.086       .  S
C1896      C1897   1.345       .  D
C1898      H1903   1.076       .  S
C1898      C1899   1.366       .  D
C1899      C1928   1.579       .  S
C1904      C1906   1.526       .  S
C1904      C1908   1.523       .  S
C1904      C1907   1.518       .  S
C1905      C1909   1.549       .  S
C1905      C1911   1.503       .  S
C1905      C1910   1.617       .  S
C1906      C1914   1.370       .  A
C1906      C1909   1.386       .  A
C1907      C1910   1.422       .  A
C1908      C1922   1.366       .  A
C1908      C1911   1.396       .  A
C1909      C1912   1.387       .  A
C1911      C1919   1.361       .  A
C1912      N1913   1.357       .  A
C1912      H1925   1.067       .  S
N1913      C1914   1.350       .  A
C1914      H1915   1.078       .  S
C1916      N1917   1.378       .  A
C1916      H1926   1.080       .  S
N1917      C1918   1.351       .  A
N1917      N1940   1.418       .  S
C1918      H1924   1.081       .  S
C1919      N1920   1.341       .  A
C1919      H1921   1.073       .  S
N1920      C1922   1.335       .  A
C1922      H1923   1.079       .  S
C1927      C1929   1.520       .  S
C1927      C1931   1.534       .  S
C1927      C1930   1.520       .  S
C1928      C1932   1.541       .  S
C1928      C1934   1.507       .  S
C1928      C1933   1.617       .  S
C1929      C1937   1.364       .  A
C1929      C1932   1.377       .  A
C1930      C1941   1.363       .  A
C1930      C1933   1.423       .  A
C1931      C1945   1.372       .  A
C1931      C1934   1.405       .  A
C1932      C1935   1.386       .  A
C1933      C1939   1.413       .  A
C1934      C1942   1.365       .  A
C1935      N1936   1.353       .  A
C1935      H1948   1.062       .  S
N1936      C1937   1.351       .  A
C1937      H1938   1.076       .  S
C1939      N1940   1.377       .  A
C1939      H1949   1.080       .  S
N1940      C1941   1.352       .  A
C1941      H1947   1.081       .  S
C1942      N1943   1.341       .  A
C1942      H1944   1.079       .  S
N1943      C1945   1.342       .  A
C1945      H1946   1.080       .  S
O1950     Co2313   2.007       .  S
O1951      C1959   1.289   1_565  A
O1951     Co2657   2.061       .  S
O1952      C1960   1.258       .  A
O1952     Co2658   1.951   1_545  S
O1953      C1961   1.267       .  A
O1953     Co2659   1.977   1_545  S
O1954     Co2657   2.078   1_545  S
O1955     Co2313   2.047   1_545  S
O1956      C1959   1.271       .  A
O1956     Co2659   1.886   1_545  S
O1957      C2644   1.248   1_556  A
O1957     Co1972   1.931       .  S
C1958      O2643   1.273   1_554  A
C1959      C2000   1.478       .  S
C1960      C2023   1.503       .  S
O1963     Co1971   1.915   1_455  S
O1964      C1977   1.273       .  A
O1964     Co1972   2.006       .  S
O1965      C1978   1.268       .  A
O1965     Co1973   2.042       .  S
O1966      C1978   1.245       .  A
O1966     Co1971   1.927       .  S
O1968      C1975   1.268       .  A
O1968     Co1973   2.048       .  S
O1969      C1976   1.242       .  A
O1969     Co1972   1.995       .  S
Co1970     O2293   2.058   1_556  S
Co1970     O2298   2.043       .  S
Co1970     O1974   2.051       .  S
Co1971     O2637   2.063       .  S
Co1971     O2640   2.076       .  S
Co1971     O1974   2.054       .  S
Co1972     O2638   1.924       .  S
Co1973     O2639   1.986       .  S
Co1973     O2642   1.882       .  S
Co1973     O1974   1.993       .  S
C1976      C2043   1.456       .  S
C1978      C1983   1.470       .  S
C1979      C1980   1.418       .  A
C1979      C1984   1.395       .  A
C1979     Br1986   1.941       .  S
C1980      C1981   1.423       .  A
C1981      C1982   1.418       .  A
C1981     Br1988   1.931       .  S
C1982      C1983   1.409       .  A
C1982     Br1987   1.929       .  S
C1983      C1984   1.407       .  A
C1984     Br1985   1.931       .  S
C1989      C1990   1.405       .  A
C1989      C1994   1.416       .  A
C1990      C1991   1.401       .  A
C1991      C1992   1.394       .  A
C1991     Br1998   1.939       .  S
C1992      C1993   1.440       .  A
C1992     Br1997   1.951       .  S
C1993      C1994   1.429       .  A
C1994     Br1995   1.925       .  S
C1999      C2000   1.419       .  A
C1999      C2004   1.403       .  A
C1999     Br2006   1.929       .  S
C2000      C2001   1.412       .  A
C2001      C2002   1.403       .  A
C2001     Br2694   1.936   1_545  S
C2002      C2003   1.420       .  A
C2002     Br2693   1.937       .  S
C2003      C2004   1.404       .  A
C2004     Br2005   1.930       .  S
Br2007     C2688   1.937       .  S
Br2008     C2687   1.936       .  S
C2009      C2010   1.429       .  A
C2009      C2014   1.409       .  A
C2009     Br2016   1.937       .  S
C2010      C2011   1.401       .  A
C2011      C2012   1.402       .  A
C2011     Br2018   1.936       .  S
C2012      C2013   1.423       .  A
C2012     Br2017   1.921       .  S
C2013      C2014   1.402       .  A
C2019      C2020   1.411       .  A
C2019      C2024   1.410       .  A
C2019     Br2026   1.938       .  S
C2020      C2021   1.420       .  A
C2021      C2022   1.417       .  A
C2021     Br2028   1.933       .  S
C2022      C2023   1.409       .  A
C2023      C2024   1.421       .  A
C2024     Br2711   1.917       .  S
Br2025     C2710   1.924       .  S
C2029      C2030   1.419       .  A
C2029      C2034   1.414       .  A
C2029     Br2722   1.935       .  S
C2030      C2031   1.422       .  A
C2031      C2032   1.412       .  A
C2032      C2033   1.416       .  A
C2032     Br2037   1.932       .  S
C2033      C2034   1.427       .  A
C2034     Br2035   1.941       .  S
Br2036     C2715   1.935       .  S
C2039      C2040   1.414       .  A
C2039      C2044   1.404       .  A
C2039     Br2046   1.928       .  S
C2040      C2041   1.450       .  A
C2041      C2042   1.400       .  A
C2041     Br2048   1.947       .  S
C2042      C2043   1.389       .  A
C2042     Br2047   1.940       .  S
C2043      C2044   1.406       .  A
C2049      C2050   1.404       .  A
C2049      C2054   1.406       .  A
C2050      C2051   1.413       .  A
C2051      C2052   1.398       .  A
C2052      C2053   1.406       .  A
C2052     Br2057   1.936       .  S
C2053      C2054   1.421       .  A
C2054     Br2055   1.933       .  S
C2059      C2060   1.553       .  S
C2059      C2065   1.551       .  S
C2059      C2063   1.535       .  S
C2059      C2396   1.534       .  S
C2060      H2067   1.085       .  S
C2060      C2061   1.360       .  D
C2061      C2062   1.542       .  S
C2061      N2256   1.453       .  S
C2062      C2066   1.594       .  S
C2062      C2064   1.584       .  S
C2062      H2068   1.110       .  S
C2063      H2069   1.077       .  S
C2063      C2064   1.344       .  D
C2064      C2107   1.548       .  S
C2065      H2070   1.083       .  S
C2065      C2066   1.367       .  D
C2066      C2071   1.580       .  S
C2071      C2073   1.513       .  S
C2071      C2075   1.509       .  S
C2071      C2074   1.585       .  S
C2072      C2101   1.586       .  S
C2072      C2076   1.524       .  S
C2072      C2078   1.526       .  S
C2072      C2077   1.579       .  S
C2073      C2081   1.374       .  A
C2073      C2076   1.403       .  A
C2074      C2077   1.437       .  A
C2075      C2089   1.374       .  A
C2075      C2078   1.400       .  A
C2076      C2079   1.380       .  A
C2078      C2086   1.379       .  A
C2079      N2080   1.345       .  A
C2079      H2092   1.074       .  S
N2080      C2225   1.423       .  S
N2080      C2081   1.335       .  A
C2081      H2082   1.078       .  S
C2083      N2084   1.369       .  A
C2083      H2093   1.082       .  S
N2084      C2085   1.367       .  A
N2084      N2166   1.425       .  S
C2085      H2091   1.081       .  S
C2086      N2087   1.345       .  A
C2086      H2088   1.080       .  S
N2087      C2143   1.426       .  S
N2087      C2089   1.341       .  A
C2089      H2090   1.073       .  S
C2094      C2095   1.529       .  S
C2094      C2100   1.582       .  S
C2094      C2098   1.523       .  S
C2094      C2383   1.535       .  S
C2095      H2102   1.087       .  S
C2095      C2096   1.347       .  D
C2096      C2097   1.548       .  S
C2096      N2279   1.448       .  S
C2097      C2101   1.585       .  S
C2097      C2099   1.582       .  S
C2097      H2103   1.110       .  S
C2098      H2104   1.083       .  S
C2098      C2099   1.334       .  D
C2099      C2201   1.541       .  S
C2100      H2105   1.083       .  S
C2100      C2101   1.392       .  D
C2106      C2193   1.511       .  S
C2106      C2108   1.515       .  S
C2106      C2110   1.518       .  S
C2106      C2109   1.535       .  S
C2107      C2111   1.547       .  S
C2107      C2113   1.526       .  S
C2107      C2112   1.596       .  S
C2108      C2116   1.371       .  A
C2108      C2111   1.372       .  A
C2109      C2120   1.370       .  A
C2109      C2112   1.418       .  A
C2110      C2124   1.376       .  A
C2110      C2113   1.388       .  A
C2111      C2114   1.389       .  A
C2112      C2118   1.408       .  A
C2113      C2121   1.376       .  A
C2114      N2115   1.368       .  A
C2114      H2127   1.077       .  S
N2115      C2134   1.462       .  S
N2115      C2116   1.350       .  A
C2116      H2117   1.073       .  S
N2119      N2213   1.418       .  S
C2121      N2122   1.350       .  A
C2121      H2123   1.065       .  S
N2122      C2146   1.434       .  S
N2122      C2124   1.343       .  A
C2124      H2125   1.078       .  S
C2129      C2130   1.553       .  S
C2129      C2135   1.565       .  S
C2129      C2133   1.548       .  S
C2129      C2376   1.561       .  S
C2130      H2137   1.083       .  S
C2130      C2131   1.360       .  D
C2131      C2132   1.597       .  S
C2131      C2154   1.590       .  S
C2132      C2136   1.580       .  S
C2132      C2134   1.564       .  S
C2132      H2138   1.108       .  S
C2133      H2139   1.086       .  S
C2133      C2134   1.356       .  D
C2135      H2140   1.074       .  S
C2135      C2136   1.371       .  D
C2136      C2248   1.582       .  S
C2141      C2142   1.551       .  S
C2141      C2147   1.568       .  S
C2141      C2145   1.555       .  S
C2141      C2363   1.544       .  S
C2142      H2149   1.080       .  S
C2142      C2143   1.355       .  D
C2143      C2144   1.520       .  S
C2144      C2148   1.539       .  S
C2144      C2146   1.521       .  S
C2144      H2150   1.112       .  S
C2145      H2151   1.086       .  S
C2145      C2146   1.354       .  D
C2147      H2152   1.082       .  S
C2147      C2148   1.376       .  D
C2148      C2270   1.541       .  S
C2153      C2237   1.581       .  S
C2153      C2155   1.528       .  S
C2153      C2157   1.517       .  S
C2153      C2156   1.574       .  S
C2154      C2158   1.529       .  S
C2154      C2160   1.522       .  S
C2154      C2159   1.590       .  S
C2155      C2163   1.384       .  A
C2155      C2158   1.405       .  A
C2156      C2167   1.385       .  A
C2156      C2159   1.435       .  A
C2157      C2171   1.380       .  A
C2157      C2160   1.398       .  A
C2158      C2161   1.390       .  A
C2159      C2165   1.395       .  A
C2160      C2168   1.382       .  A
C2161      N2162   1.350       .  A
C2161      H2174   1.080       .  S
N2162      C2183   1.441       .  S
N2162      C2163   1.348       .  A
C2163      H2164   1.080       .  S
C2165      N2166   1.371       .  A
C2165      H2175   1.081       .  S
N2166      C2167   1.363       .  A
C2167      H2173   1.081       .  S
C2168      N2169   1.344       .  A
C2168      H2170   1.078       .  S
N2169      C2195   1.435       .  S
N2169      C2171   1.344       .  A
C2171      H2172   1.080       .  S
C2176      C2177   1.538       .  S
C2176      C2182   1.575       .  S
C2176      C2180   1.543       .  S
C2176      C2353   1.533       .  S
C2177      H2184   1.086       .  S
C2177      C2178   1.341       .  D
C2178      C2179   1.517       .  S
C2178      N2263   1.412       .  S
C2179      C2183   1.513       .  S
C2179      C2181   1.534       .  S
C2179      H2185   1.112       .  S
C2180      H2186   1.072       .  S
C2180      C2181   1.362       .  D
C2181      C2200   1.518       .  S
C2182      H2187   1.083       .  S
C2182      C2183   1.377       .  D
C2188      C2189   1.547       .  S
C2188      C2194   1.566       .  S
C2188      C2192   1.548       .  S
C2188      C2346   1.525       .  S
C2189      H2196   1.087       .  S
C2189      C2190   1.345       .  D
C2190      C2191   1.516       .  S
C2190      N2286   1.420       .  S
C2191      C2195   1.515       .  S
C2191      C2193   1.535       .  S
C2191      H2197   1.112       .  S
C2192      H2198   1.081       .  S
C2192      C2193   1.362       .  D
C2194      H2199   1.079       .  S
C2194      C2195   1.366       .  D
C2200      C2202   1.523       .  S
C2200      C2204   1.517       .  S
C2200      C2203   1.541       .  S
C2201      C2205   1.530       .  S
C2201      C2207   1.524       .  S
C2201      C2206   1.593       .  S
C2202      C2210   1.372       .  A
C2202      C2205   1.370       .  A
C2203      C2214   1.373       .  A
C2203      C2206   1.418       .  A
C2204      C2218   1.372       .  A
C2204      C2207   1.393       .  A
C2205      C2208   1.379       .  A
C2206      C2212   1.407       .  A
C2207      C2215   1.375       .  A
C2208      N2209   1.360       .  A
C2208      H2221   1.076       .  S
N2209      C2240   1.455       .  S
N2209      C2210   1.355       .  A
C2210      H2211   1.071       .  S
C2212      N2213   1.372       .  A
C2212      H2222   1.081       .  S
N2213      C2214   1.353       .  A
C2214      H2220   1.072       .  S
C2215      N2216   1.349       .  A
C2215      H2217   1.070       .  S
N2216      C2228   1.430       .  S
N2216      C2218   1.340       .  A
C2218      H2219   1.079       .  S
C2223      C2224   1.552       .  S
C2223      C2229   1.576       .  S
C2223      C2227   1.548       .  S
C2223      C2336   1.548       .  S
C2224      H2231   1.086       .  S
C2224      C2225   1.352       .  D
C2225      C2226   1.508       .  S
C2226      C2230   1.545       .  S
C2226      C2228   1.517       .  S
C2226      H2232   1.112       .  S
C2227      H2233   1.087       .  S
C2227      C2228   1.347       .  D
C2229      H2234   1.073   1_554  S
C2229      C2230   1.378       .  D
C2230      C2247   1.539       .  S
C2235      C2236   1.555       .  S
C2235      C2241   1.551       .  S
C2235      C2239   1.548       .  S
C2235      C2323   1.545       .  S
C2236      H2243   1.082       .  S
C2236      C2237   1.365       .  D
C2237      C2238   1.581       .  S
C2238      C2242   1.593       .  S
C2238      C2240   1.561       .  S
C2238      H2244   1.107       .  S
C2239      H2245   1.086       .  S
C2239      C2240   1.345       .  D
C2241      H2246   1.076       .  S
C2241      C2242   1.367       .  D
C2242      C2271   1.580       .  S
C2247      C2249   1.526       .  S
C2247      C2251   1.523       .  S
C2247      C2250   1.518       .  S
C2248      C2252   1.549       .  S
C2248      C2254   1.503       .  S
C2248      C2253   1.617       .  S
C2249      C2257   1.370       .  A
C2249      C2252   1.387       .  A
C2250      C2604   1.361   1_554  A
C2250      C2253   1.422       .  A
C2251      C2265   1.366       .  A
C2251      C2254   1.397       .  A
C2252      C2255   1.387       .  A
C2253      C2602   1.413   1_554  A
C2254      C2262   1.361       .  A
C2255      N2256   1.357       .  A
C2255      H2268   1.067       .  S
N2256      C2257   1.350       .  A
C2257      H2258   1.078       .  S
C2259      C2596   1.413       .  A
C2259      N2260   1.378       .  A
C2259      H2269   1.080       .  S
N2260      C2261   1.351       .  A
N2260      N2283   1.418       .  S
C2261      C2593   1.362       .  A
C2261      H2267   1.081       .  S
C2262      N2263   1.341       .  A
C2262      H2264   1.073       .  S
N2263      C2265   1.335       .  A
C2265      H2266   1.079       .  S
C2270      C2272   1.520       .  S
C2270      C2274   1.534       .  S
C2270      C2273   1.520       .  S
C2271      C2275   1.541       .  S
C2271      C2277   1.508       .  S
C2271      C2276   1.617       .  S
C2272      C2280   1.365       .  A
C2272      C2275   1.377       .  A
C2273      C2284   1.363       .  A
C2273      C2276   1.423       .  A
C2274      C2288   1.372       .  A
C2274      C2277   1.405       .  A
C2275      C2278   1.386       .  A
C2276      C2282   1.413       .  A
C2277      C2285   1.366       .  A
C2278      N2279   1.353       .  A
C2278      H2291   1.063       .  S
N2279      C2280   1.351       .  A
C2280      H2281   1.076       .  S
C2282      N2283   1.377       .  A
C2282      H2292   1.080       .  S
N2283      C2284   1.352       .  A
C2284      H2290   1.081       .  S
C2285      N2286   1.341       .  A
C2285      H2287   1.079       .  S
N2286      C2288   1.342       .  A
C2288      H2289   1.080       .  S
O2294      C2302   1.289       .  A
O2295      C2303   1.249       .  A
O2296      C2304   1.267       .  A
O2298      C2647   1.274       .  A
O2299      C2302   1.271       .  A
O2300     Co2315   1.930       .  S
C2301      C2736   1.467       .  S
C2302      C2343   1.478       .  S
C2303      C2366   1.492       .  S
C2304      O2641   1.278       .  A
C2304      C2716   1.511       .  S
O2305      C2661   1.244       .  A
O2305     Co2656   1.935       .  S
O2306     Co2314   1.932   1_455  S
O2307      C2320   1.273       .  A
O2307     Co2315   2.006       .  S
O2308      C2321   1.267       .  A
O2308     Co2316   2.051       .  S
O2309      C2321   1.243       .  A
O2309     Co2314   1.933       .  S
O2310     Co2656   1.965       .  S
O2311      C2318   1.269       .  A
O2311     Co2316   2.049       .  S
O2312      C2319   1.242       .  A
O2312     Co2315   1.995       .  S
Co2313     O2648   1.935       .  S
Co2313     O2653   1.965       .  S
Co2313     O2317   2.030       .  S
Co2314     O2317   2.094       .  S
Co2316     O2317   1.995       .  S
C2318      O2648   1.244       .  A
C2318      C2699   1.481       .  S
C2319      C2386   1.456       .  S
C2320      C2676   1.493       .  S
C2321      C2326   1.478       .  S
C2322      C2323   1.418       .  A
C2322      C2327   1.398       .  A
C2322     Br2329   1.942       .  S
C2323      C2324   1.423       .  A
C2324      C2325   1.420       .  A
C2324     Br2331   1.930       .  S
C2325      C2326   1.409       .  A
C2325     Br2330   1.928       .  S
C2326      C2327   1.408       .  A
C2327     Br2328   1.928       .  S
C2332      C2333   1.406       .  A
C2332      C2337   1.418       .  A
C2332     Br2682   1.920       .  S
C2333      C2334   1.401   1_556  A
C2333      C2663   1.495       .  S
C2334      C2335   1.394       .  A
C2334     Br2341   1.939       .  S
C2335      C2336   1.439       .  A
C2335     Br2340   1.951       .  S
C2336      C2337   1.430   1_554  A
C2337     Br2338   1.926       .  S
Br2339     C2675   1.922       .  S
C2342      C2343   1.419       .  A
C2342      C2347   1.403       .  A
C2342     Br2349   1.929       .  S
C2343      C2344   1.412       .  A
C2344      C2345   1.403       .  A
C2345      C2346   1.420       .  A
C2346      C2347   1.404       .  A
C2347     Br2348   1.930       .  S
C2352      C2353   1.429       .  A
C2352      C2357   1.408       .  A
C2352     Br2359   1.937       .  S
C2353      C2354   1.401       .  A
C2354      C2355   1.402       .  A
C2354     Br2361   1.936       .  S
C2355      C2356   1.423       .  A
C2355     Br2360   1.921       .  S
C2356      C2357   1.401       .  A
C2356      C2661   1.480   1_554  S
C2357     Br2701   1.930   1_554  S
Br2358     C2700   1.930       .  S
C2362      C2363   1.411       .  A
C2362      C2367   1.406       .  A
C2362     Br2369   1.936       .  S
C2363      C2364   1.420       .  A
C2364      C2365   1.415       .  A
C2364     Br2371   1.933       .  S
C2365      C2366   1.408       .  A
C2366      C2367   1.419       .  A
C2372      C2373   1.422       .  A
C2372      C2377   1.417       .  A
C2373      C2374   1.423   1_554  A
C2373      C2647   1.519   1_554  S
C2374      C2375   1.414   1_556  A
C2374     Br2724   1.924       .  S
C2375      C2376   1.416       .  A
C2375     Br2380   1.932   1_554  S
C2376      C2377   1.427       .  A
C2377     Br2378   1.942       .  S
Br2381     C2717   1.926       .  S
C2382      C2383   1.414       .  A
C2382      C2387   1.404       .  A
C2382     Br2389   1.928       .  S
C2383      C2384   1.450       .  A
C2384      C2385   1.400       .  A
C2384     Br2391   1.947       .  S
C2385      C2386   1.389       .  A
C2385     Br2390   1.940       .  S
C2386      C2387   1.406       .  A
C2392      C2393   1.404       .  A
C2392      C2397   1.406       .  A
C2393      C2394   1.413       .  A
C2393      C2644   1.467       .  S
C2394      C2395   1.399       .  A
C2394     Br2744   1.919   1_554  S
C2395      C2396   1.406       .  A
C2395     Br2400   1.936       .  S
C2396      C2397   1.421       .  A
C2397     Br2398   1.933       .  S
Br2401     C2737   1.919       .  S
C2402      C2403   1.553       .  S
C2402      C2408   1.552       .  S
C2402      C2406   1.535       .  S
C2402      C2739   1.534       .  S
C2403      H2410   1.085       .  S
C2403      C2404   1.360       .  D
C2404      C2405   1.543       .  S
C2404      N2599   1.453       .  S
C2405      C2409   1.594       .  S
C2405      C2407   1.584       .  S
C2405      H2411   1.110       .  S
C2406      H2412   1.077       .  S
C2406      C2407   1.343       .  D
C2407      C2450   1.548       .  S
C2408      H2413   1.083       .  S
C2408      C2409   1.368       .  D
C2409      C2414   1.582       .  S
C2414      C2416   1.512       .  S
C2414      C2418   1.508       .  S
C2414      C2417   1.585       .  S
C2415      C2444   1.593       .  S
C2415      C2419   1.527       .  S
C2415      C2421   1.527       .  S
C2415      C2420   1.579       .  S
C2416      C2424   1.374       .  A
C2416      C2419   1.404       .  A
C2417      C2420   1.438       .  A
C2418      C2432   1.374       .  A
C2418      C2421   1.401       .  A
C2419      C2422   1.380       .  A
C2421      C2429   1.379       .  A
C2422      N2423   1.346       .  A
C2422      H2435   1.074       .  S
N2423      C2568   1.422       .  S
N2423      C2424   1.334       .  A
C2424      H2425   1.078       .  S
C2426      N2427   1.369       .  A
C2426      H2436   1.082       .  S
N2427      C2428   1.367       .  A
N2427      N2509   1.425       .  S
C2428      H2434   1.081       .  S
C2429      N2430   1.345       .  A
C2429      H2431   1.080       .  S
N2430      C2486   1.426       .  S
N2430      C2432   1.341       .  A
C2432      H2433   1.073       .  S
C2437      C2438   1.530       .  S
C2437      C2443   1.589       .  S
C2437      C2441   1.525       .  S
C2437      C2726   1.551       .  S
C2438      H2445   1.087       .  S
C2438      C2439   1.348       .  D
C2439      C2440   1.548       .  S
C2439      N2622   1.449       .  S
C2440      C2444   1.583       .  S
C2440      C2442   1.581       .  S
C2440      H2446   1.110       .  S
C2441      H2447   1.083       .  S
C2441      C2442   1.337       .  D
C2442      C2544   1.544       .  S
C2443      H2448   1.083       .  S
C2443      C2444   1.396       .  D
C2449      C2536   1.511       .  S
C2449      C2451   1.514       .  S
C2449      C2453   1.518       .  S
C2449      C2452   1.535       .  S
C2450      C2454   1.547       .  S
C2450      C2456   1.526       .  S
C2450      C2455   1.597       .  S
C2451      C2459   1.371       .  A
C2451      C2454   1.372       .  A
C2452      C2463   1.370       .  A
C2452      C2455   1.418       .  A
C2453      C2467   1.376       .  A
C2453      C2456   1.388       .  A
C2454      C2457   1.388       .  A
C2455      C2461   1.408       .  A
C2456      C2464   1.376       .  A
C2457      N2458   1.368       .  A
C2457      H2470   1.077       .  S
N2458      C2477   1.462       .  S
N2458      C2459   1.350       .  A
C2459      H2460   1.073       .  S
N2462      N2556   1.418       .  S
C2464      N2465   1.350       .  A
C2464      H2466   1.065       .  S
N2465      C2489   1.434       .  S
N2465      C2467   1.343       .  A
C2467      H2468   1.078       .  S
C2472      C2473   1.552       .  S
C2472      C2478   1.564       .  S
C2472      C2476   1.548       .  S
C2472      C2719   1.556       .  S
C2473      H2480   1.083       .  S
C2473      C2474   1.359       .  D
C2474      C2475   1.597       .  S
C2474      C2497   1.589       .  S
C2475      C2479   1.580       .  S
C2475      C2477   1.564       .  S
C2475      H2481   1.108       .  S
C2476      H2482   1.086       .  S
C2476      C2477   1.356       .  D
C2478      H2483   1.074       .  S
C2478      C2479   1.370       .  D
C2479      C2591   1.580       .  S
C2484      C2485   1.551       .  S
C2484      C2490   1.568       .  S
C2484      C2488   1.555       .  S
C2484      C2706   1.544       .  S
C2485      H2492   1.080       .  S
C2485      C2486   1.355       .  D
C2486      C2487   1.520       .  S
C2487      C2491   1.539       .  S
C2487      C2489   1.521       .  S
C2487      H2493   1.112       .  S
C2488      H2494   1.086       .  S
C2488      C2489   1.354       .  D
C2490      H2495   1.082       .  S
C2490      C2491   1.376       .  D
C2491      C2613   1.541       .  S
C2496      C2580   1.581       .  S
C2496      C2498   1.528       .  S
C2496      C2500   1.517       .  S
C2496      C2499   1.574       .  S
C2497      C2501   1.529       .  S
C2497      C2503   1.521       .  S
C2497      C2502   1.590       .  S
C2498      C2506   1.384       .  A
C2498      C2501   1.405       .  A
C2499      C2510   1.385       .  A
C2499      C2502   1.435       .  A
C2500      C2514   1.381       .  A
C2500      C2503   1.398       .  A
C2501      C2504   1.390       .  A
C2502      C2508   1.396       .  A
C2503      C2511   1.382       .  A
C2504      N2505   1.350       .  A
C2504      H2517   1.080       .  S
N2505      C2526   1.441       .  S
N2505      C2506   1.348       .  A
C2506      H2507   1.080       .  S
C2508      N2509   1.371       .  A
C2508      H2518   1.081       .  S
N2509      C2510   1.363       .  A
C2510      H2516   1.081       .  S
C2511      N2512   1.344       .  A
C2511      H2513   1.078       .  S
N2512      C2538   1.435       .  S
N2512      C2514   1.345       .  A
C2514      H2515   1.080       .  S
C2519      C2520   1.538       .  S
C2519      C2525   1.575       .  S
C2519      C2523   1.543       .  S
C2519      C2696   1.533       .  S
C2520      H2527   1.086       .  S
C2520      C2521   1.341       .  D
C2521      C2522   1.517       .  S
C2521      N2606   1.412       .  S
C2522      C2526   1.513       .  S
C2522      C2524   1.535       .  S
C2522      H2528   1.112       .  S
C2523      H2529   1.072       .  S
C2523      C2524   1.363       .  D
C2524      C2543   1.519       .  S
C2525      H2530   1.083       .  S
C2525      C2526   1.377       .  D
C2531      C2532   1.547       .  S
C2531      C2537   1.566       .  S
C2531      C2535   1.548       .  S
C2531      C2689   1.525       .  S
C2532      H2539   1.087       .  S
C2532      C2533   1.345       .  D
C2533      C2534   1.516       .  S
C2533      N2629   1.420       .  S
C2534      C2538   1.515       .  S
C2534      C2536   1.535       .  S
C2534      H2540   1.112       .  S
C2535      H2541   1.081       .  S
C2535      C2536   1.362       .  D
C2537      H2542   1.079       .  S
C2537      C2538   1.366       .  D
C2543      C2545   1.523       .  S
C2543      C2547   1.517       .  S
C2543      C2546   1.541       .  S
C2544      C2548   1.531       .  S
C2544      C2550   1.526       .  S
C2544      C2549   1.592       .  S
C2545      C2553   1.372       .  A
C2545      C2548   1.370       .  A
C2546      C2557   1.373       .  A
C2546      C2549   1.418       .  A
C2547      C2561   1.372       .  A
C2547      C2550   1.394       .  A
C2548      C2551   1.379       .  A
C2549      C2555   1.406       .  A
C2550      C2558   1.375       .  A
C2551      N2552   1.360       .  A
C2551      H2564   1.076       .  S
N2552      C2583   1.456       .  S
N2552      C2553   1.355       .  A
C2553      H2554   1.070       .  S
C2555      N2556   1.371       .  A
C2555      H2565   1.081       .  S
N2556      C2557   1.353       .  A
C2557      H2563   1.072       .  S
C2558      N2559   1.350       .  A
C2558      H2560   1.071       .  S
N2559      C2571   1.430       .  S
N2559      C2561   1.340       .  A
C2561      H2562   1.079       .  S
C2566      C2567   1.552       .  S
C2566      C2572   1.576       .  S
C2566      C2570   1.549       .  S
C2566      C2679   1.547       .  S
C2567      H2574   1.086       .  S
C2567      C2568   1.351       .  D
C2568      C2569   1.507       .  S
C2569      C2573   1.545       .  S
C2569      C2571   1.517       .  S
C2569      H2575   1.112       .  S
C2570      H2576   1.087       .  S
C2570      C2571   1.347       .  D
C2572      H2577   1.072       .  S
C2572      C2573   1.377       .  D
C2573      C2590   1.538       .  S
C2578      C2579   1.555       .  S
C2578      C2584   1.551       .  S
C2578      C2582   1.548       .  S
C2578      C2666   1.545       .  S
C2579      H2586   1.082       .  S
C2579      C2580   1.365       .  D
C2580      C2581   1.581       .  S
C2581      C2585   1.593       .  S
C2581      C2583   1.561       .  S
C2581      H2587   1.107       .  S
C2582      H2588   1.086       .  S
C2582      C2583   1.345       .  D
C2584      H2589   1.076       .  S
C2584      C2585   1.367       .  D
C2585      C2614   1.580       .  S
C2590      C2592   1.526       .  S
C2590      C2594   1.523       .  S
C2590      C2593   1.518       .  S
C2591      C2595   1.549       .  S
C2591      C2597   1.503       .  S
C2591      C2596   1.617       .  S
C2592      C2600   1.370       .  A
C2592      C2595   1.386       .  A
C2593      C2596   1.422       .  A
C2594      C2608   1.366       .  A
C2594      C2597   1.396       .  A
C2595      C2598   1.387       .  A
C2597      C2605   1.361       .  A
C2598      N2599   1.357       .  A
C2598      H2611   1.067       .  S
N2599      C2600   1.350       .  A
C2600      H2601   1.078       .  S
C2602      N2603   1.378       .  A
C2602      H2612   1.080       .  S
N2603      C2604   1.351       .  A
N2603      N2626   1.418       .  S
C2604      H2610   1.081       .  S
C2605      N2606   1.341       .  A
C2605      H2607   1.073       .  S
N2606      C2608   1.335       .  A
C2608      H2609   1.079       .  S
C2613      C2615   1.520       .  S
C2613      C2617   1.534       .  S
C2613      C2616   1.520       .  S
C2614      C2618   1.541       .  S
C2614      C2620   1.508       .  S
C2614      C2619   1.617       .  S
C2615      C2623   1.365       .  A
C2615      C2618   1.377       .  A
C2616      C2627   1.363       .  A
C2616      C2619   1.423       .  A
C2617      C2631   1.372       .  A
C2617      C2620   1.405       .  A
C2618      C2621   1.386       .  A
C2619      C2625   1.413       .  A
C2620      C2628   1.366       .  A
C2621      N2622   1.353       .  A
C2621      H2634   1.063       .  S
N2622      C2623   1.351       .  A
C2623      H2624   1.076       .  S
C2625      N2626   1.377       .  A
C2625      H2635   1.080       .  S
N2626      C2627   1.352       .  A
C2627      H2633   1.081       .  S
C2628      N2629   1.341       .  A
C2628      H2630   1.079       .  S
N2629      C2631   1.342       .  A
C2631      H2632   1.080       .  S
O2637      C2645   1.290       .  A
O2638      C2646   1.249       .  A
O2639      C2647   1.266       .  A
O2642      C2645   1.272       .  A
O2643     Co2658   1.912       .  S
C2645      C2686   1.476       .  S
C2646      C2709   1.492       .  S
O2649     Co2657   1.932   1_455  S
O2650      C2663   1.263       .  A
O2650     Co2658   2.016       .  S
O2651      C2664   1.267       .  A
O2651     Co2659   2.051       .  S
O2652      C2664   1.243       .  A
O2652     Co2657   1.933       .  S
O2654      C2661   1.269       .  A
O2654     Co2659   2.049       .  S
O2655      C2662   1.262       .  A
O2655     Co2658   2.065       .  S
Co2656     O2660   2.030       .  S
Co2657     O2660   2.094       .  S
Co2659     O2660   1.994       .  S
C2662      C2729   1.484       .  S
C2664      C2669   1.477       .  S
C2665      C2666   1.418       .  A
C2665      C2670   1.398       .  A
C2665     Br2672   1.942       .  S
C2666      C2667   1.423       .  A
C2667      C2668   1.420       .  A
C2667     Br2674   1.931       .  S
C2668      C2669   1.409       .  A
C2668     Br2673   1.928       .  S
C2669      C2670   1.408       .  A
C2670     Br2671   1.928       .  S
C2675      C2676   1.405       .  A
C2675      C2680   1.416       .  A
C2676      C2677   1.401       .  A
C2677      C2678   1.394       .  A
C2677     Br2684   1.939       .  S
C2678      C2679   1.440       .  A
C2678     Br2683   1.951       .  S
C2679      C2680   1.430       .  A
C2680     Br2681   1.925       .  S
C2685      C2686   1.419       .  A
C2685      C2690   1.402       .  A
C2685     Br2692   1.930       .  S
C2686      C2687   1.413       .  A
C2687      C2688   1.403       .  A
C2688      C2689   1.420       .  A
C2689      C2690   1.404       .  A
C2690     Br2691   1.930       .  S
C2695      C2696   1.429       .  A
C2695      C2700   1.409       .  A
C2695     Br2702   1.937       .  S
C2696      C2697   1.401       .  A
C2697      C2698   1.402       .  A
C2697     Br2704   1.936       .  S
C2698      C2699   1.423       .  A
C2698     Br2703   1.921       .  S
C2699      C2700   1.402       .  A
C2705      C2706   1.411       .  A
C2705      C2710   1.406       .  A
C2705     Br2712   1.936       .  S
C2706      C2707   1.420       .  A
C2707      C2708   1.415       .  A
C2707     Br2714   1.933       .  S
C2708      C2709   1.408       .  A
C2709      C2710   1.419       .  A
C2715      C2716   1.419       .  A
C2715      C2720   1.414       .  A
C2716      C2717   1.422       .  A
C2717      C2718   1.412       .  A
C2718      C2719   1.416       .  A
C2718     Br2723   1.932       .  S
C2719      C2720   1.427       .  A
C2720     Br2721   1.941       .  S
C2725      C2726   1.413       .  A
C2725      C2730   1.412       .  A
C2725     Br2732   1.930       .  S
C2726      C2727   1.451       .  A
C2727      C2728   1.411       .  A
C2727     Br2734   1.945       .  S
C2728      C2729   1.392       .  A
C2728     Br2733   1.933       .  S
C2729      C2730   1.417       .  A
C2735      C2736   1.404       .  A
C2735      C2740   1.406       .  A
C2736      C2737   1.413       .  A
C2737      C2738   1.398       .  A
C2738      C2739   1.406       .  A
C2738     Br2743   1.936       .  S
C2739      C2740   1.421       .  A
C2740     Br2741   1.933       .  S
