geometry optimzed in LAMMPS
_audit_creation_date              2020-12-01 
_audit_creation_method            'lammps2cif' 
_symmetry_space_group_name_H-M    'P1' 
_symmetry_Int_Tables_number       1 
_symmetry_cell_setting            triclinic 
loop_ 
_symmetry_equiv_pos_as_xyz 
  x,y,z 
_cell_length_a                    46.04941615 
_cell_length_b                    46.063621516930404 
_cell_length_c                    33.63990789125538 
_cell_angle_alpha                 90.13191102105426 
_cell_angle_beta                  89.92053391716236 
_cell_angle_gamma                 126.5299613022638 
loop_ 
_atom_site_label 
_atom_site_type_symbol 
_atom_site_fract_x 
_atom_site_fract_y 
_atom_site_fract_z 
_atom_site_charge 
C1          C  0.53167525  0.84784343  0.99086003     0.79100
N2          N  0.52891138  0.86074675  0.28928308    -0.79200
C3          C  0.52191136  0.88551828  0.28900201     0.81500
N4          N  0.51868466  0.89827690  0.32387254    -0.79200
C5          C  0.52182872  0.88579489  0.02556678     0.81600
N6          N  0.52865124  0.86091675  0.02558315    -0.80900
C7          C  0.38158869  0.92215109  0.99072621     0.79100
N8          N  0.40000468  0.93593203  0.28947441    -0.79200
C9          C  0.43582237  0.96334793  0.28960397     0.81500
N10         N  0.45368639  0.97663196  0.99132846    -0.79200
C11         C  0.43546162  0.96285909  0.02611671     0.81600
N12         N  0.39962124  0.93534197  0.02568471    -0.80900
N13         N  0.63724998  0.04812758  0.20355169    -0.07300
N14         N  0.65895399  0.06633611  0.23368511    -0.59400
N15         N  0.62654205  0.01464749  0.11177208    -0.06900
N16         N  0.64013858  0.00918430  0.08044061    -0.61500
N17         N  0.63783189  0.04843527  0.11294812    -0.06500
N18         N  0.65978004  0.06685270  0.08306573    -0.59300
N19         N  0.62616350  0.01438545  0.20416708    -0.06200
N20         N  0.63966446  0.00875193  0.23537434    -0.61900
C21         C  0.66018771  0.04154018  0.25313872     0.94900
C22         C  0.66098710  0.04213922  0.06320722     0.94700
N23         N  0.51773047  0.92736306  0.11123159    -0.07400
N24         N  0.50078036  0.90629660  0.07997864    -0.59900
N25         N  0.55135806  0.93811749  0.20274058    -0.05600
N26         N  0.55795114  0.92419507  0.23238808    -0.61200
N27         N  0.51766745  0.92714661  0.20379438    -0.07500
N28         N  0.50070508  0.90589167  0.23484753    -0.60200
N29         N  0.55146630  0.93843800  0.11209846    -0.05200
N30         N  0.55809056  0.92475824  0.08209079    -0.61300
Mn31       Mn  0.58949869  0.97585408  0.15766623     1.18400
C32         C  0.52635377  0.90482490  0.06244207     0.97000
C33         C  0.52622319  0.90416896  0.25200543     0.97700
N34         N  0.59883284  0.08551943  0.11174365    -0.07500
N35         N  0.61589555  0.10638097  0.08048088    -0.63800
N36         N  0.56497574  0.07513338  0.20317239    -0.06300
N37         N  0.55854852  0.08945754  0.23270264    -0.64500
N38         N  0.59864171  0.08603322  0.20421746    -0.07000
N39         N  0.61572625  0.10762098  0.23507288    -0.64100
N40         N  0.56508930  0.07441660  0.11238704    -0.05900
N41         N  0.55852441  0.08781271  0.08214384    -0.64800
Mn42       Mn  0.61929551  0.06817208  0.15819119     1.10700
C43         C  0.59031650  0.10756327  0.06261012     0.98200
C44         C  0.59040317  0.10974922  0.25214809     0.98300
N45         N  0.47891366  0.96484194  0.20316490    -0.07000
N46         N  0.45719994  0.94669691  0.23330298    -0.62400
N47         N  0.48998748  0.99840859  0.11165858    -0.06300
N48         N  0.47635239  0.00396793  0.08054191    -0.59100
N49         N  0.47869721  0.96461280  0.11247633    -0.07600
N50         N  0.45671727  0.94629330  0.08252614    -0.61900
N51         N  0.49011581  0.99862556  0.20396586    -0.06600
N52         N  0.47668421  0.00434612  0.23523513    -0.59100
Mn53       Mn  0.49705353  0.94479943  0.15769701     1.20200
Mn54       Mn  0.52692434  0.03718039  0.15779770     1.10100
Cl55       Cl  0.55818032  0.00648665  0.15789225    -0.87100
C56         C  0.45608613  0.97159151  0.25289246     0.95200
C57         C  0.45548342  0.97108788  0.06303751     0.95000
C58         C  0.58843932  0.16770443  0.99309104     0.79100
N59         N  0.58974554  0.15424687  0.29093917    -0.79200
C60         C  0.59489280  0.12808274  0.28968224     0.81500
N61         N  0.59749493  0.11440002  0.32405906    -0.79200
C62         C  0.59525465  0.12703837  0.02617274     0.81600
N63         N  0.59006192  0.15305005  0.02715188    -0.80900
C64         C  0.73444583  0.09275092  0.99085721     0.79100
N65         N  0.71615266  0.07840962  0.28962770    -0.79200
C66         C  0.68063905  0.05007195  0.28974035     0.81500
N67         N  0.66292469  0.03636351  0.99147467    -0.79200
C68         C  0.68104664  0.05065258  0.02625453     0.82500
N69         N  0.71653789  0.07909591  0.02578344    -0.80900
N70         N  0.98077497  0.46627035  0.22054488    -0.07300
N71         N  0.96011786  0.44922400  0.25196948    -0.59400
N72         N  0.99047828  0.49956965  0.12909015    -0.06900
N73         N  0.97596939  0.50570064  0.09962723    -0.61500
N74         N  0.98004933  0.46607649  0.12797603    -0.06500
N75         N  0.95859350  0.44881347  0.09707910    -0.59300
N76         N  0.99134169  0.49981782  0.21975569    -0.06200
N77         N  0.97773283  0.50623685  0.24999557    -0.61900
C78         C  0.95845181  0.47458544  0.26973062     0.94900
C79         C  0.95606985  0.47386981  0.08010208     0.94700
N80         N  0.10018952  0.58658071  0.12834908    -0.07400
N81         N  0.11797434  0.60830892  0.09813149    -0.59900
N82         N  0.06675458  0.57541058  0.22009723    -0.05600
N83         N  0.06086711  0.58876905  0.25131094    -0.61200
N84         N  0.10072893  0.58722383  0.21911884    -0.07500
N85         N  0.11883939  0.60930309  0.24909497    -0.60200
N86         N  0.06623912  0.57490457  0.12786606    -0.05200
N87         N  0.06004008  0.58801286  0.09676947    -0.61300
Mn88       Mn  0.02815983  0.53801046  0.17421449     1.18400
C89         C  0.09267268  0.60889779  0.07883892     0.97000
C90         C  0.09372720  0.61004236  0.26873321     0.97700
N91         N  0.01913239  0.42859204  0.12844220    -0.07500
N92         N  0.00124356  0.40687754  0.09819160    -0.63800
N93         N  0.05290015  0.44008941  0.22010367    -0.06300
N94         N  0.05871237  0.42667427  0.25124091    -0.64500
N95         N  0.01892991  0.42827544  0.21912724    -0.07000
N96         N  0.00075037  0.40615306  0.24896091    -0.64100
N97         N  0.05307297  0.44025747  0.12774713    -0.05900
N98         N  0.05917417  0.42717913  0.09642937    -0.64800
Mn99       Mn  0.99854425  0.44610261  0.17395693     1.10700
C100        C  0.02648004  0.40630587  0.07861913     0.98200
C101        C  0.02579134  0.40536987  0.26857171     0.98300
N102        N  0.13916810  0.54931995  0.22009772    -0.07000
N103        N  0.16019860  0.56653352  0.25128874    -0.62400
N104        N  0.12879500  0.51549345  0.12859638    -0.06300
N105        N  0.14310862  0.50916395  0.09899265    -0.59100
N106        N  0.13923610  0.54899060  0.12745443    -0.07600
N107        N  0.16050922  0.56605039  0.09640039    -0.61900
N108        N  0.12852667  0.51574040  0.21928383    -0.06600
N109        N  0.14244463  0.50947581  0.24924025    -0.59100
Mn110      Mn  0.12102810  0.56925390  0.17369916     1.20200
Mn111      Mn  0.09136015  0.47730887  0.17397378     1.10100
Cl112      Cl  0.05978443  0.50768378  0.17392025    -0.87100
C113        C  0.16205398  0.54125685  0.26883477     0.95200
C114        C  0.16287339  0.54086125  0.07932341     0.95000
C115        C  0.22077743  0.53794848  0.00606104     0.79100
N116        N  0.20685637  0.54018559  0.30501740    -0.79200
C117        C  0.18134301  0.54613157  0.30551439     0.81500
N118        N  0.16855204  0.54856878  0.00742985    -0.79200
C119        C  0.18156506  0.54541981  0.04206372     0.81600
N120        N  0.20712753  0.53942627  0.04126720    -0.80900
C121        C  0.97614663  0.33192186  0.00771380     0.79100
N122        N  0.98948587  0.34975083  0.30604426    -0.79200
C123        C  0.01765328  0.38537261  0.30548546     0.81500
N124        N  0.03184271  0.40363418  0.00691051    -0.79200
C125        C  0.01842233  0.38594098  0.04201346     0.81600
N126        N  0.99048833  0.35033927  0.04219410    -0.80900
C127        C  0.89894595  0.47728985  0.00643120     0.79100
N128        N  0.91352056  0.47562399  0.30558581    -0.79200
C129        C  0.93895729  0.46961269  0.30624104     0.81500
N130        N  0.95119648  0.46665642  0.00820242    -0.79200
C131        C  0.93759733  0.46927080  0.04272842     0.81600
N132        N  0.91197966  0.47518717  0.04174796    -0.80900
C133        C  0.14162205  0.68369443  0.00831179     0.79100
N134        N  0.12886663  0.66574279  0.30654778    -0.79200
C135        C  0.10157851  0.62984308  0.30581602     0.81500
N136        N  0.08766805  0.61143012  0.00712476    -0.79200
C137        C  0.10052151  0.62919301  0.04231304     0.81600
N138        N  0.12759528  0.66508426  0.04270089    -0.80900
N139        N  0.51913660  0.42846978  0.12333037    -0.07300
N140        N  0.50207591  0.40707271  0.09231317    -0.59400
N141        N  0.55292362  0.43975504  0.21495464    -0.06900
N142        N  0.55953887  0.42609776  0.24487244    -0.61500
N143        N  0.51921183  0.42877915  0.21591655    -0.06500
N144        N  0.50229261  0.40781245  0.24718164    -0.59300
N145        N  0.55283055  0.43941227  0.12425880    -0.06200
N146        N  0.55927815  0.42528403  0.09456946    -0.61900
C147        C  0.52747909  0.40515666  0.07505812     0.94900
C148        C  0.52786358  0.40633037  0.26461887     0.94700
N149        N  0.63941862  0.54906320  0.21595339    -0.07400
N150        N  0.66075669  0.56615406  0.24699174    -0.59900
N151        N  0.62834778  0.51532624  0.12419313    -0.05600
N152        N  0.64213715  0.50877555  0.09425740    -0.61200
N153        N  0.63915732  0.54897204  0.12327728    -0.07500
N154        N  0.66014239  0.56589555  0.09197820    -0.60200
N155        N  0.62866185  0.51544605  0.21485374    -0.05200
N156        N  0.64286863  0.50908487  0.24442044    -0.61300
Mn157      Mn  0.59115605  0.47702980  0.16956283     1.18400
C158        C  0.66282397  0.54083677  0.26406604     0.97000
C159        C  0.66183312  0.54040490  0.07451340     0.97700
N160        N  0.48055337  0.46662273  0.21592280    -0.07500
N161        N  0.45931623  0.44958403  0.24701340    -0.63800
N162        N  0.49163838  0.50036559  0.12435247    -0.06300
N163        N  0.47781046  0.50687453  0.09451114    -0.64500
N164        N  0.48083414  0.46672470  0.12328016    -0.07000
N165        N  0.45981366  0.44975309  0.09200418    -0.64100
N166        N  0.49132290  0.50024091  0.21500753    -0.05900
N167        N  0.47724885  0.50667218  0.24474138    -0.64800
Mn168      Mn  0.49859145  0.44630159  0.16960417     1.10700
C169        C  0.45735482  0.47495395  0.26430521     0.98200
C170        C  0.45808498  0.47520460  0.07470167     0.98300
N171        N  0.60080609  0.58720751  0.12386701    -0.07000
N172        N  0.61782363  0.60853787  0.09287366    -0.62400
N173        N  0.56690646  0.57584445  0.21548044    -0.06300
N174        N  0.56020014  0.58946811  0.24547151    -0.59100
N175        N  0.60062448  0.58683917  0.21646872    -0.07600
N176        N  0.61745260  0.60779710  0.24783952    -0.61900
N177        N  0.56710325  0.57622877  0.12484816    -0.06600
N178        N  0.56058664  0.59024748  0.09523673    -0.59100
Mn179      Mn  0.62135793  0.56938373  0.16989275     1.20200
Mn180      Mn  0.52878409  0.53862452  0.16991161     1.10100
Cl181      Cl  0.55997949  0.50783737  0.16973421    -0.87100
C182        C  0.59235091  0.61032579  0.07570070     0.95200
C183        C  0.59183336  0.60927407  0.26528769     0.95000
C184        C  0.53363471  0.34948911  0.33545668     0.79100
N185        N  0.53031405  0.36182658  0.03727089    -0.79200
C186        C  0.52306564  0.38644015  0.03789598     0.81500
N187        N  0.51986002  0.39931150  0.33650167    -0.79200
C188        C  0.52335087  0.38719519  0.30129465     0.81600
N189        N  0.53075772  0.36277618  0.30095336    -0.80900
C190        C  0.40180010  0.48161437  0.00346199     0.79100
N191        N  0.41472426  0.47833637  0.03806118    -0.79200
C192        C  0.43899406  0.47069813  0.03792429     0.81500
N193        N  0.45117292  0.46713350  0.00281657    -0.79200
C194        C  0.43857320  0.47057294  0.30134416     0.81600
N195        N  0.41427819  0.47822954  0.30179773    -0.80900
C196        C  0.71820786  0.53402929  0.00307301     0.79100
N197        N  0.70507550  0.53702896  0.03773618    -0.79200
C198        C  0.68093052  0.54483454  0.03770129     0.81500
N199        N  0.66893115  0.54859641  0.00262945    -0.79200
C200        C  0.68162296  0.54524962  0.30108997     0.81600
N201        N  0.70595475  0.53763067  0.30143517    -0.80900
C202        C  0.58684497  0.66663753  0.00349579     0.79100
N203        N  0.58959257  0.65369655  0.03839458    -0.79200
C204        C  0.59669455  0.62899848  0.03869889     0.81500
N205        N  0.59981071  0.61614860  0.00383714    -0.79200
C206        C  0.59624686  0.62831175  0.30214145     0.81600
N207        N  0.58909578  0.65295202  0.30213458    -0.80900
C208        C  0.87184797  0.48502874  0.00529595    -0.13100
C209        C  0.84850529  0.47564688  0.30575102     0.02400
C210        C  0.82448079  0.48481908  0.30582317    -0.13600
C211        C  0.82299101  0.50325012  0.00463369     0.17200
C212        C  0.84583058  0.51236674  0.03746685    -0.10700
C213        C  0.86985592  0.50321013  0.03764878    -0.03600
H214        H  0.80651104  0.47719938  0.28074600     0.03800
C215        C  0.79646360  0.51149761  0.00392921     0.19200
H216        H  0.88755399  0.51103024  0.06301360     0.08900
C217        C  0.76628748  0.49222811  0.02902444    -0.17000
C218        C  0.74027530  0.49878279  0.02886490     0.01900
C219        C  0.74436248  0.52529338  0.00330747    -0.12300
C220        C  0.77422206  0.54399630  0.31088355    -0.02400
C221        C  0.80022820  0.53738086  0.31112549    -0.07500
H222        H  0.76276055  0.47164174  0.04851748     0.04900
H223        H  0.77771793  0.56435214  0.29102356     0.08300
Br224      Br  0.84606838  0.53848835  0.08210865    -0.07200
Br225      Br  0.84613775  0.44878127  0.26046474    -0.04200
Br226      Br  0.69854829  0.46869444  0.06200337    -0.01300
Br227      Br  0.84107696  0.56519529  0.27633746    -0.05700
C228        C  0.37562735  0.49040699  0.00370146    -0.13100
C229        C  0.37752081  0.51431701  0.03189260     0.02400
C230        C  0.35153184  0.52091306  0.03161002    -0.13600
C231        C  0.32377234  0.50458723  0.00329453     0.17200
C232        C  0.32242690  0.48166531  0.30773385    -0.10700
C233        C  0.34815491  0.47468453  0.30817023    -0.03600
H234        H  0.35326076  0.53933548  0.05327632     0.03800
C235        C  0.29707536  0.51260540  0.00393115     0.19200
H236        H  0.34639057  0.45650756  0.28612498     0.08900
C237        C  0.29887492  0.53535219  0.30820105    -0.17000
C238        C  0.27464609  0.54427922  0.30843781     0.01900
C239        C  0.24791129  0.53034961  0.00510921    -0.12300
C240        C  0.24652483  0.50782715  0.03443096    -0.02400
C241        C  0.27067022  0.49880486  0.03390755    -0.07500
H242        H  0.31951288  0.54649835  0.28540255     0.04900
H243        H  0.22608524  0.49653581  0.05745255     0.08300
Br244      Br  0.28549814  0.45874736  0.26771903    -0.07200
Br245      Br  0.41638527  0.54122230  0.06941263    -0.04200
Br246      Br  0.28116833  0.57723461  0.26819835    -0.01300
Br247      Br  0.26582492  0.46650253  0.07385898    -0.05700
C248        C  0.77260429  0.12493998  0.99096242    -0.13100
C249        C  0.78647060  0.15289959  0.29590299     0.02400
C250        C  0.82205276  0.18390041  0.29925669    -0.13600
C251        C  0.84418979  0.18791561  0.99723920     0.17200
C252        C  0.83073438  0.16000263  0.02514967    -0.10700
C253        C  0.79525027  0.12881880  0.02180748    -0.03600
H254        H  0.83211130  0.20573397  0.27820372     0.03800
C255        C  0.87973302  0.22300672  0.00235128     0.19200
H256        H  0.78516258  0.10766571  0.04376691     0.08900
C257        C  0.88394446  0.24599743  0.03281049    -0.17000
C258        C  0.91546135  0.28126604  0.03588783     0.01900
C259        C  0.94366121  0.29398809  0.00799908    -0.12300
C260        C  0.93964148  0.27050089  0.31142380    -0.02400
C261        C  0.90799939  0.23523954  0.30847581    -0.07500
H262        H  0.86191379  0.23687012  0.05335885     0.04900
H263        H  0.96103341  0.27975813  0.28992837     0.08300
Br264      Br  0.85977156  0.16349828  0.06839871    -0.07200
Br265      Br  0.75776374  0.15274575  0.25433299    -0.04200
Br266      Br  0.91613056  0.31127575  0.07628871    -0.01300
Br267      Br  0.90436385  0.20475080  0.26680173    -0.05700
C268        C  0.58168038  0.19547145  0.99469033    -0.13100
C269        C  0.59342202  0.22002058  0.02687256     0.02400
C270        C  0.58472057  0.24439855  0.02778763    -0.13600
C271        C  0.56467347  0.24517036  0.33047488     0.17200
C272        C  0.55347907  0.22134968  0.29813473    -0.10700
C273        C  0.56200276  0.19683814  0.29707256    -0.03600
H274        H  0.59394488  0.26316620  0.05241010     0.03800
C275        C  0.55657735  0.27173262  0.33229248     0.19200
H276        H  0.55252679  0.17828156  0.27222906     0.08900
C277        C  0.57678169  0.30291714  0.30887496    -0.17000
C278        C  0.57013744  0.32883918  0.31005003     0.01900
C279        C  0.54249206  0.32349659  0.33470650    -0.12300
C280        C  0.52283990  0.29261631  0.02549965    -0.02400
C281        C  0.52969697  0.26680491  0.02442724    -0.07500
H282        H  0.59811988  0.30728379  0.28995790     0.04900
H283        H  0.50169763  0.28826768  0.04475285     0.08300
Br284      Br  0.52555674  0.22066028  0.25539318    -0.07200
Br285      Br  0.62316067  0.22362578  0.06951364    -0.04200
Br286      Br  0.60153713  0.37220419  0.27973846    -0.01300
Br287      Br  0.50129752  0.22486545  0.05750301    -0.05700
C288        C  0.34311713  0.89077986  0.99067451    -0.13100
C289        C  0.32921103  0.86195815  0.29670376     0.02400
C290        C  0.29336640  0.83154741  0.29992813    -0.13600
C291        C  0.27094825  0.82898797  0.99671844     0.17200
C292        C  0.28432913  0.85789491  0.02334156    -0.10700
C293        C  0.32019722  0.88850365  0.02019357    -0.03600
H294        H  0.28334750  0.80894407  0.27992819     0.03800
C295        C  0.23544750  0.79407660  0.00255398     0.19200
H296        H  0.33036735  0.91041373  0.04124216     0.08900
C297        C  0.23116317  0.77252344  0.03460661    -0.17000
C298        C  0.20039855  0.73686876  0.03797488     0.01900
C299        C  0.17298035  0.72224691  0.00868760    -0.12300
C300        C  0.17687774  0.74450072  0.31070107    -0.02400
C301        C  0.20780347  0.78015478  0.30749586    -0.07500
H302        H  0.25277479  0.78300447  0.05611466     0.04900
H303        H  0.15606085  0.73393200  0.28818889     0.08300
Br304      Br  0.25455882  0.85638364  0.06446720    -0.07200
Br305      Br  0.35825089  0.86005370  0.25722549    -0.04200
Br306      Br  0.20015568  0.70925254  0.08094324    -0.01300
Br307      Br  0.21156327  0.80884795  0.26373139    -0.05700
C308        C  0.53895493  0.82059983  0.99156163    -0.13100
C309        C  0.56378904  0.82193513  0.29873104     0.02400
C310        C  0.56998195  0.79569828  0.30134976    -0.13600
C311        C  0.55193723  0.76807026  0.99637243     0.17200
C312        C  0.52720949  0.76665396  0.02236489    -0.10700
C313        C  0.52102386  0.79285165  0.01994410    -0.03600
H314        H  0.58936547  0.79711182  0.28153976     0.03800
C315        C  0.55986053  0.74142180  0.99884901     0.19200
H316        H  0.50180677  0.79132041  0.04014602     0.08900
C317        C  0.58348561  0.74537095  0.02829121    -0.17000
C318        C  0.59254616  0.72129447  0.03065962     0.01900
C319        C  0.57789664  0.69267252  0.00294008    -0.12300
C320        C  0.55408750  0.68883333  0.30693369    -0.02400
C321        C  0.54488237  0.71275375  0.30490635    -0.07500
H322        H  0.59527316  0.76758900  0.04921010     0.04900
H323        H  0.54219096  0.66683642  0.28570848     0.08300
Br324      Br  0.50077122  0.72899715  0.06102401    -0.07200
Br325      Br  0.59214269  0.86015260  0.26093867    -0.04200
Br326      Br  0.62677369  0.73054992  0.07075752    -0.01300
Br327      Br  0.51109109  0.70485057  0.26506359    -0.05700
C328        C  0.53167646  0.84784431  0.32419309     0.79100
N329        N  0.52891108  0.86074656  0.62261551    -0.79200
C330        C  0.52191126  0.88551825  0.62233473     0.81500
N331        N  0.51868466  0.89827676  0.65720543    -0.79200
C332        C  0.52182933  0.88579526  0.35890015     0.81600
N333        N  0.52865224  0.86091741  0.35891634    -0.80900
C334        C  0.38158850  0.92215143  0.32405941     0.79100
N335        N  0.40000451  0.93593207  0.62280760    -0.79200
C336        C  0.43582226  0.96334778  0.62293721     0.81500
N337        N  0.45368610  0.97663249  0.32466198    -0.79200
C338        C  0.43546129  0.96285939  0.35945013     0.81600
N339        N  0.39962089  0.93534232  0.35901799    -0.80900
N340        N  0.63724997  0.04812807  0.53688503    -0.07300
N341        N  0.65895397  0.06633653  0.56701845    -0.59400
N342        N  0.62654209  0.01464811  0.44510531    -0.06900
N343        N  0.64013855  0.00918497  0.41377373    -0.61500
N344        N  0.63783185  0.04843587  0.44628146    -0.06500
N345        N  0.65977991  0.06685333  0.41639903    -0.59300
N346        N  0.62616354  0.01438592  0.53750037    -0.06200
N347        N  0.63966440  0.00875229  0.56870761    -0.61900
C348        C  0.66018760  0.04154054  0.58647206     0.94900
C349        C  0.66098704  0.04213990  0.39654043     0.94700
N350        N  0.51773066  0.92736343  0.44456464    -0.07400
N351        N  0.50078058  0.90629675  0.41331185    -0.59900
N352        N  0.55135816  0.93811788  0.53607363    -0.05600
N353        N  0.55795121  0.92419549  0.56572119    -0.61200
N354        N  0.51766754  0.92714697  0.53712742    -0.07500
N355        N  0.50070505  0.90589182  0.56818040    -0.60200
N356        N  0.55146660  0.93843856  0.44543159    -0.05200
N357        N  0.55809084  0.92475865  0.41542416    -0.61300
Mn358      Mn  0.58949882  0.97585463  0.49099944     1.18400
C359        C  0.52635407  0.90482510  0.39577541     0.97000
C360        C  0.52622316  0.90416914  0.58533832     0.97700
N361        N  0.59883262  0.08551980  0.44507714    -0.07500
N362        N  0.61589547  0.10638144  0.41381443    -0.63800
N363        N  0.56497555  0.07513359  0.53650584    -0.06300
N364        N  0.55854827  0.08945763  0.56603619    -0.64500
N365        N  0.59864150  0.08603342  0.53755101    -0.07000
N366        N  0.61572616  0.10762133  0.56840634    -0.64100
N367        N  0.56508907  0.07441687  0.44572053    -0.05900
N368        N  0.55852427  0.08781300  0.41547730    -0.64800
Mn369      Mn  0.61929537  0.06817255  0.49152454     1.10700
C370        C  0.59031640  0.10756368  0.39594363     0.98200
C371        C  0.59040301  0.10974946  0.58548157     0.98300
N372        N  0.47891353  0.96484208  0.53649796    -0.07000
N373        N  0.45719977  0.94669691  0.56663597    -0.62400
N374        N  0.48998734  0.99840883  0.44499187    -0.06300
N375        N  0.47635208  0.00396822  0.41387543    -0.59100
N376        N  0.47869707  0.96461302  0.44580945    -0.07600
N377        N  0.45671705  0.94629364  0.41585930    -0.61900
N378        N  0.49011568  0.99862569  0.53729916    -0.06600
N379        N  0.47668397  0.00434610  0.56856845    -0.59100
Mn380      Mn  0.49705354  0.94479973  0.49103006     1.20200
Mn381      Mn  0.52692414  0.03718061  0.49113107     1.10100
Cl382      Cl  0.55818023  0.00648698  0.49122551    -0.87100
C383        C  0.45608588  0.97159142  0.58622558     0.95200
C384        C  0.45548302  0.97108820  0.39637094     0.95000
C385        C  0.58843914  0.16770468  0.32642418     0.79100
N386        N  0.58974524  0.15424679  0.62427320    -0.79200
C387        C  0.59489268  0.12808278  0.62301594     0.81500
N388        N  0.59749492  0.11439992  0.65739258    -0.79200
C389        C  0.59525441  0.12703866  0.35950608     0.81600
N390        N  0.59006168  0.15305037  0.36048512    -0.80900
C391        C  0.73444615  0.09275118  0.32419083     0.79100
N392        N  0.71615243  0.07841027  0.62296106    -0.79200
C393        C  0.68063893  0.05007234  0.62307367     0.81500
N394        N  0.66292495  0.03636426  0.32480787    -0.79200
C395        C  0.68104674  0.05065320  0.35958785     0.82500
N396        N  0.71653801  0.07909633  0.35911696    -0.80900
N397        N  0.98077568  0.46627121  0.55387886    -0.07300
N398        N  0.96011824  0.44922506  0.58530332    -0.59400
N399        N  0.99047875  0.49956984  0.46242359    -0.06900
N400        N  0.97596987  0.50570067  0.43296048    -0.61500
N401        N  0.98004959  0.46607661  0.46130996    -0.06500
N402        N  0.95859380  0.44881340  0.43041304    -0.59300
N403        N  0.99134237  0.49981867  0.55308911    -0.06200
N404        N  0.97773344  0.50623806  0.58332857    -0.61900
C405        C  0.95845240  0.47458682  0.60306399     0.94900
C406        C  0.95607025  0.47386966  0.41343565     0.94700
N407        N  0.10018995  0.58658085  0.46168197    -0.07400
N408        N  0.11797462  0.60830901  0.43146428    -0.59900
N409        N  0.06675539  0.57541130  0.55343018    -0.05600
N410        N  0.06086789  0.58876976  0.58464387    -0.61200
N411        N  0.10072977  0.58722461  0.55245177    -0.07500
N412        N  0.11884018  0.60930386  0.58242795    -0.60200
N413        N  0.06623955  0.57490475  0.46119911    -0.05200
N414        N  0.06004034  0.58801302  0.43010266    -0.61300
Mn415      Mn  0.02816041  0.53801097  0.50754771     1.18400
C416        C  0.09267287  0.60889793  0.41217192     0.97000
C417        C  0.09372797  0.61004313  0.60206616     0.97700
N418        N  0.01913270  0.42859235  0.46177644    -0.07500
N419        N  0.00124388  0.40687790  0.43152584    -0.63800
N420        N  0.05290070  0.44009008  0.55343765    -0.06300
N421        N  0.05871296  0.42667468  0.58457458    -0.64500
N422        N  0.01893048  0.42827614  0.55246135    -0.07000
N423        N  0.00075104  0.40615355  0.58229487    -0.64100
N424        N  0.05307324  0.44025770  0.46108120    -0.05900
N425        N  0.05917435  0.42717945  0.42976323    -0.64800
Mn426      Mn  0.99854470  0.44610311  0.50729105     1.10700
C427        C  0.02648023  0.40630624  0.41195312     0.98200
C428        C  0.02579199  0.40537022  0.60190542     0.98300
N429        N  0.13916897  0.54932074  0.55343093    -0.07000
N430        N  0.16019946  0.56653453  0.58462188    -0.62400
N431        N  0.12879536  0.51549343  0.46193006    -0.06300
N432        N  0.14310875  0.50916346  0.43232649    -0.59100
N433        N  0.13923648  0.54899055  0.46078753    -0.07600
N434        N  0.16050944  0.56604985  0.42973326    -0.61900
N435        N  0.12852726  0.51574106  0.55261747    -0.06600
N436        N  0.14244521  0.50947656  0.58257396    -0.59100
Mn437      Mn  0.12102876  0.56925432  0.50703215     1.20200
Mn438      Mn  0.09136056  0.47730928  0.50730768     1.10100
Cl439      Cl  0.05978497  0.50768426  0.50725380    -0.87100
C440        C  0.16205477  0.54125785  0.60216811     0.95200
C441        C  0.16287352  0.54086045  0.41265682     0.95000
C442        C  0.22077474  0.53794370  0.33939394     0.79100
N443        N  0.20685760  0.54018750  0.63835121    -0.79200
C444        C  0.18134379  0.54613287  0.63884790     0.81500
N445        N  0.16855199  0.54856774  0.34076328    -0.79200
C446        C  0.18156468  0.54541817  0.37539703     0.81600
N447        N  0.20712571  0.53942264  0.37460025    -0.80900
C448        C  0.97614681  0.33192172  0.34104853     0.79100
N449        N  0.98948641  0.34975111  0.63937782    -0.79200
C450        C  0.01765396  0.38537288  0.63881895     0.81500
N451        N  0.03184265  0.40363417  0.34024444    -0.79200
C452        C  0.01842235  0.38594125  0.37534755     0.81600
N453        N  0.99048855  0.35033951  0.37552858    -0.80900
C454        C  0.89894583  0.47728871  0.33976467     0.79100
N455        N  0.91352210  0.47562716  0.63891875    -0.79200
C456        C  0.93895774  0.46961440  0.63957416     0.81500
N457        N  0.95119638  0.46665543  0.34153600    -0.79200
C458        C  0.93759758  0.46927028  0.37606201     0.81600
N459        N  0.91197977  0.47518641  0.37508150    -0.80900
C460        C  0.14162226  0.68369393  0.34164420     0.79100
N461        N  0.12886688  0.66574353  0.63988096    -0.79200
C462        C  0.10157913  0.62984369  0.63914909     0.81500
N463        N  0.08766767  0.61142985  0.34045778    -0.79200
C464        C  0.10052152  0.62919298  0.37564589     0.81600
N465        N  0.12759551  0.66508411  0.37603343    -0.80900
N466        N  0.51913688  0.42846949  0.45666437    -0.07300
N467        N  0.50207667  0.40707301  0.42564666    -0.59400
N468        N  0.55292388  0.43975519  0.54828892    -0.06900
N469        N  0.55953907  0.42609791  0.57820678    -0.61500
N470        N  0.51921205  0.42877914  0.54925067    -0.06500
N471        N  0.50229270  0.40781223  0.58051563    -0.59300
N472        N  0.55283083  0.43941201  0.45759300    -0.06200
N473        N  0.55927881  0.42528433  0.42790338    -0.61900
C474        C  0.52748001  0.40515726  0.40839156     0.94900
C475        C  0.52786368  0.40633028  0.59795298     0.94700
N476        N  0.63941888  0.54906367  0.54928663    -0.07400
N477        N  0.66075698  0.56615495  0.58032482    -0.59900
N478        N  0.62834778  0.51532586  0.45752689    -0.05600
N479        N  0.64213687  0.50877476  0.42759124    -0.61200
N480        N  0.63915728  0.54897165  0.45661057    -0.07500
N481        N  0.66014186  0.56589470  0.42531107    -0.60200
N482        N  0.62866209  0.51544649  0.54818759    -0.05200
N483        N  0.64286890  0.50908567  0.57775458    -0.61300
Mn484      Mn  0.59115629  0.47702979  0.50289694     1.18400
C485        C  0.66282449  0.54083796  0.59739953     0.97000
C486        C  0.66183259  0.54040385  0.40784670     0.97700
N487        N  0.48055348  0.46662270  0.54925631    -0.07500
N488        N  0.45931644  0.44958424  0.58034706    -0.63800
N489        N  0.49163850  0.50036494  0.45768554    -0.06300
N490        N  0.47781041  0.50687349  0.42784403    -0.64500
N491        N  0.48083415  0.46672401  0.45661385    -0.07000
N492        N  0.45981375  0.44975212  0.42533791    -0.64100
N493        N  0.49132296  0.50024085  0.54834066    -0.05900
N494        N  0.47724886  0.50667227  0.57807433    -0.64800
Mn495      Mn  0.49859161  0.44630135  0.50293805     1.10700
C496        C  0.45735493  0.47495423  0.59763850     0.98200
C497        C  0.45808500  0.47520338  0.40803491     0.98300
N498        N  0.60080601  0.58720718  0.45719988    -0.07000
N499        N  0.61782366  0.60853769  0.42620668    -0.62400
N500        N  0.56690646  0.57584449  0.54881329    -0.06300
N501        N  0.56020009  0.58946797  0.57880454    -0.59100
N502        N  0.60062446  0.58683920  0.54980155    -0.07600
N503        N  0.61745257  0.60779709  0.58117239    -0.61900
N504        N  0.56710315  0.57622842  0.45818097    -0.06600
N505        N  0.56058665  0.59024731  0.42856965    -0.59100
Mn506      Mn  0.62135796  0.56938366  0.50322576     1.20200
Mn507      Mn  0.52878409  0.53862426  0.50324455     1.10100
Cl508      Cl  0.55997957  0.50783719  0.50306772    -0.87100
C509        C  0.59235100  0.61032572  0.40903378     0.95200
C510        C  0.59183328  0.60927388  0.59862074     0.95000
C511        C  0.53363414  0.34948861  0.66879102     0.79100
N512        N  0.53031547  0.36182771  0.37060391    -0.79200
C513        C  0.52306677  0.38644104  0.37122925     0.81500
N514        N  0.51985994  0.39931141  0.66983562    -0.79200
C515        C  0.52335083  0.38719504  0.63462872     0.81600
N516        N  0.53075751  0.36277587  0.63428762    -0.80900
C517        C  0.40179767  0.48160983  0.33679551     0.79100
N518        N  0.41472255  0.47833270  0.37139464    -0.79200
C519        C  0.43899369  0.47069622  0.37125764     0.81500
N520        N  0.45117320  0.46713258  0.33614987    -0.79200
C521        C  0.43857339  0.47057357  0.63467743     0.81600
N522        N  0.41427885  0.47823077  0.63513095    -0.80900
C523        C  0.71820705  0.53402750  0.33640649     0.79100
N524        N  0.70507474  0.53702743  0.37106951    -0.79200
C525        C  0.68092969  0.54483296  0.37103449     0.81500
N526        N  0.66893041  0.54859488  0.33596259    -0.79200
C527        C  0.68162359  0.54525144  0.63442359     0.81600
N528        N  0.70595608  0.53763345  0.63476907    -0.80900
C529        C  0.58684566  0.66663758  0.33682837     0.79100
N530        N  0.58959269  0.65369635  0.37172728    -0.79200
C531        C  0.59669464  0.62899827  0.37203191     0.81500
N532        N  0.59981115  0.61614847  0.33717031    -0.79200
C533        C  0.59624678  0.62831155  0.63547453     0.81600
N534        N  0.58909598  0.65295202  0.63546748    -0.80900
C535        C  0.87184780  0.48502758  0.33862929    -0.13100
C536        C  0.84850832  0.47565276  0.63908378     0.02400
C537        C  0.82448388  0.48482502  0.63915658    -0.13600
C538        C  0.82299074  0.50324897  0.33796726     0.17200
C539        C  0.84583007  0.51236522  0.37080049    -0.10700
C540        C  0.86985541  0.50320857  0.37098237    -0.03600
H541        H  0.80651422  0.47720597  0.61407901     0.03800
C542        C  0.79646322  0.51149634  0.33726270     0.19200
H543        H  0.88755331  0.51102871  0.39634696     0.08900
C544        C  0.76628721  0.49222683  0.36235805    -0.17000
C545        C  0.74027495  0.49878141  0.36219883     0.01900
C546        C  0.74436187  0.52529184  0.33664124    -0.12300
C547        C  0.77422483  0.54400157  0.64421836    -0.02400
C548        C  0.80023134  0.53738670  0.64446037    -0.07500
H549        H  0.76276020  0.47164003  0.38185070     0.04900
H550        H  0.77772067  0.56435763  0.62435864     0.08300
Br551      Br  0.84606757  0.53848635  0.41544269    -0.07200
Br552      Br  0.84614062  0.44878794  0.59379658    -0.04200
Br553      Br  0.69854848  0.46869349  0.39533812    -0.01300
Br554      Br  0.84108055  0.56520222  0.60967311    -0.05700
C555        C  0.37562368  0.49040083  0.33703522    -0.13100
C556        C  0.37751636  0.51431034  0.36522637     0.02400
C557        C  0.35152670  0.52090550  0.36494360    -0.13600
C558        C  0.32376721  0.50457909  0.33662794     0.17200
C559        C  0.32242880  0.48166853  0.64106700    -0.10700
C560        C  0.34815654  0.47468740  0.64150311    -0.03600
H561        H  0.35325508  0.53932742  0.38660922     0.03800
C562        C  0.29707009  0.51259717  0.33726384     0.19200
H563        H  0.34639212  0.45651054  0.61945734     0.08900
C564        C  0.29887693  0.53535535  0.64153509    -0.17000
C565        C  0.27464794  0.54428218  0.64177185     0.01900
C566        C  0.24790730  0.53034312  0.33844187    -0.12300
C567        C  0.24652038  0.50782049  0.36776365    -0.02400
C568        C  0.27066506  0.49879729  0.36724033    -0.07500
H569        H  0.31951463  0.54650143  0.61873693     0.04900
H570        H  0.22608049  0.49652945  0.39078575     0.08300
Br571      Br  0.28550014  0.45875112  0.60105203    -0.07200
Br572      Br  0.41638069  0.54121656  0.40274645    -0.04200
Br573      Br  0.28116999  0.57723753  0.60153247    -0.01300
Br574      Br  0.26581905  0.46649457  0.40719173    -0.05700
C575        C  0.77260470  0.12493986  0.32429638    -0.13100
C576        C  0.78646971  0.15290063  0.62923668     0.02400
C577        C  0.82205187  0.18390154  0.63259028    -0.13600
C578        C  0.84419033  0.18791540  0.33057406     0.17200
C579        C  0.83073463  0.16000220  0.35848413    -0.10700
C580        C  0.79525043  0.12881851  0.35514160    -0.03600
H581        H  0.83211015  0.20573542  0.61153773     0.03800
C582        C  0.87973363  0.22300652  0.33568623     0.19200
H583        H  0.78516259  0.10766502  0.37710077     0.08900
C584        C  0.88394491  0.24599714  0.36614551    -0.17000
C585        C  0.91546169  0.28126575  0.36922302     0.01900
C586        C  0.94366158  0.29398790  0.34133417    -0.12300
C587        C  0.93964141  0.27050126  0.64475728    -0.02400
C588        C  0.90799886  0.23524008  0.64180924    -0.07500
H589        H  0.86191389  0.23686961  0.38669407     0.04900
H590        H  0.96103322  0.27975824  0.62326218     0.08300
Br591      Br  0.85977144  0.16349740  0.40173319    -0.07200
Br592      Br  0.75776237  0.15274674  0.58766720    -0.04200
Br593      Br  0.91613095  0.31127539  0.40962401    -0.01300
Br594      Br  0.90436286  0.20475098  0.60013521    -0.05700
C595        C  0.58168014  0.19547161  0.32802305    -0.13100
C596        C  0.59342172  0.22002085  0.36020518     0.02400
C597        C  0.58472031  0.24439880  0.36111989    -0.13600
C598        C  0.56467313  0.24516994  0.66381009     0.17200
C599        C  0.55347813  0.22134900  0.63147012    -0.10700
C600        C  0.56200192  0.19683760  0.63040769    -0.03600
H601        H  0.59394438  0.26316644  0.38574238     0.03800
C602        C  0.55657688  0.27173217  0.66562782     0.19200
H603        H  0.55252579  0.17828113  0.60556451     0.08900
C604        C  0.57678196  0.30291721  0.64221106    -0.17000
C605        C  0.57013757  0.32883920  0.64338569     0.01900
C606        C  0.54249151  0.32349615  0.66804113    -0.12300
C607        C  0.52284092  0.29261749  0.35883248    -0.02400
C608        C  0.52969746  0.26680571  0.35775948    -0.07500
H609        H  0.59812011  0.30728399  0.62329491     0.04900
H610        H  0.50169943  0.28826933  0.37808601     0.08300
Br611      Br  0.52555511  0.22065916  0.58872907    -0.07200
Br612      Br  0.62316058  0.22362647  0.40284625    -0.04200
Br613      Br  0.60153799  0.37220462  0.61307501    -0.01300
Br614      Br  0.50129791  0.22486649  0.39083562    -0.05700
C615        C  0.34311705  0.89078008  0.32400747    -0.13100
C616        C  0.32920978  0.86195860  0.63003653     0.02400
C617        C  0.29336509  0.83154834  0.63326090    -0.13600
C618        C  0.27094836  0.82898773  0.33005126     0.17200
C619        C  0.28432868  0.85789483  0.35667394    -0.10700
C620        C  0.32019665  0.88850377  0.35352596    -0.03600
H621        H  0.28334574  0.80894467  0.61326029     0.03800
C622        C  0.23544777  0.79407614  0.33588669     0.19200
H623        H  0.33036638  0.91041406  0.37457466     0.08900
C624        C  0.23116343  0.77252283  0.36793909    -0.17000
C625        C  0.20039898  0.73686806  0.37130702     0.01900
C626        C  0.17298064  0.72224634  0.34201978    -0.12300
C627        C  0.17687707  0.74450143  0.64403448    -0.02400
C628        C  0.20780262  0.78015567  0.64082912    -0.07500
H629        H  0.25277533  0.78300409  0.38944780     0.04900
H630        H  0.15606039  0.73393255  0.62152255     0.08300
Br631      Br  0.25455757  0.85638355  0.39779849    -0.07200
Br632      Br  0.35824907  0.86005389  0.59055772    -0.04200
Br633      Br  0.20015626  0.70925138  0.41427474    -0.01300
Br634      Br  0.21156202  0.80884842  0.59706439    -0.05700
C635        C  0.53895624  0.82060068  0.32489428    -0.13100
C636        C  0.56378941  0.82193555  0.63206402     0.02400
C637        C  0.56998257  0.79569878  0.63468257    -0.13600
C638        C  0.55193783  0.76807050  0.32970415     0.17200
C639        C  0.52721288  0.76665641  0.35569946    -0.10700
C640        C  0.52102766  0.79285433  0.35327901    -0.03600
H641        H  0.58936652  0.79711302  0.61487362     0.03800
C642        C  0.55986129  0.74142205  0.33218046     0.19200
H643        H  0.50181248  0.79132460  0.37348342     0.08900
C644        C  0.58348288  0.74536866  0.36162572    -0.17000
C645        C  0.59254360  0.72129240  0.36399436     0.01900
C646        C  0.57789737  0.69267266  0.33627219    -0.12300
C647        C  0.55408698  0.68883272  0.64026700    -0.02400
C648        C  0.54488194  0.71275322  0.63823959    -0.07500
H649        H  0.59526764  0.76758474  0.38254727     0.04900
H650        H  0.54219003  0.66683586  0.61904293     0.08300
Br651      Br  0.50077745  0.72900189  0.39436149    -0.07200
Br652      Br  0.59214436  0.86015439  0.59427339    -0.04200
Br653      Br  0.62676712  0.73054549  0.40409642    -0.01300
Br654      Br  0.51108974  0.70484913  0.59839743    -0.05700
C655        C  0.53167596  0.84784383  0.65752542     0.79100
N656        N  0.52891069  0.86074609  0.95594987    -0.79200
C657        C  0.52191101  0.88551789  0.95566859     0.81500
N658        N  0.51868456  0.89827682  0.99053908    -0.79200
C659        C  0.52182907  0.88579477  0.69223291     0.81600
N660        N  0.52865189  0.86091685  0.69224882    -0.80900
C661        C  0.38158823  0.92215138  0.65739259     0.79100
N662        N  0.40000483  0.93593156  0.95614112    -0.79200
C663        C  0.43582250  0.96334752  0.95627049     0.81500
N664        N  0.45368606  0.97663194  0.65799525    -0.79200
C665        C  0.43546122  0.96285877  0.69278339     0.81600
N666        N  0.39962074  0.93534191  0.69235119    -0.80900
N667        N  0.63724962  0.04812706  0.87021835    -0.07300
N668        N  0.65895347  0.06633552  0.90035185    -0.59400
N669        N  0.62654191  0.01464717  0.77843861    -0.06900
N670        N  0.64013845  0.00918416  0.74710698    -0.61500
N671        N  0.63783159  0.04843488  0.77961484    -0.06500
N672        N  0.65977968  0.06685246  0.74973246    -0.59300
N673        N  0.62616323  0.01438490  0.87083374    -0.06200
N674        N  0.63966401  0.00875127  0.90204107    -0.61900
C675        C  0.66018714  0.04153953  0.91980553     0.94900
C676        C  0.66098686  0.04213914  0.72987376     0.94700
N677        N  0.51773044  0.92736253  0.77789785    -0.07400
N678        N  0.50078044  0.90629620  0.74664482    -0.59900
N679        N  0.55135786  0.93811679  0.86940690    -0.05600
N680        N  0.55795102  0.92419464  0.89905465    -0.61200
N681        N  0.51766728  0.92714605  0.87046076    -0.07500
N682        N  0.50070489  0.90589113  0.90151389    -0.60200
N683        N  0.55146639  0.93843763  0.77876472    -0.05200
N684        N  0.55809065  0.92475780  0.74875722    -0.61300
Mn685      Mn  0.58949858  0.97585359  0.82433270     1.18400
C686        C  0.52635390  0.90482450  0.72910835     0.97000
C687        C  0.52622299  0.90416848  0.91867191     0.97700
N688        N  0.59883259  0.08551898  0.77841036    -0.07500
N689        N  0.61589550  0.10638081  0.74714781    -0.63800
N690        N  0.56497543  0.07513284  0.86983906    -0.06300
N691        N  0.55854824  0.08945701  0.89936929    -0.64500
N692        N  0.59864137  0.08603263  0.87088431    -0.07000
N693        N  0.61572605  0.10762067  0.90173953    -0.64100
N694        N  0.56508913  0.07441633  0.77905389    -0.05900
N695        N  0.55852433  0.08781247  0.74881067    -0.64800
Mn696      Mn  0.61929516  0.06817164  0.82485787     1.10700
C697        C  0.59031650  0.10756326  0.72927712     0.98200
C698        C  0.59040296  0.10974893  0.91881466     0.98300
N699        N  0.47891340  0.96484134  0.86983116    -0.07000
N700        N  0.45719974  0.94669622  0.89996928    -0.62400
N701        N  0.48998732  0.99840813  0.77832511    -0.06300
N702        N  0.47635211  0.00396751  0.74720865    -0.59100
N703        N  0.47869707  0.96461231  0.77914262    -0.07600
N704        N  0.45671694  0.94629288  0.74919256    -0.61900
N705        N  0.49011574  0.99862501  0.87063240    -0.06600
N706        N  0.47668407  0.00434550  0.90190163    -0.59100
Mn707      Mn  0.49705338  0.94479892  0.82436327     1.20200
Mn708      Mn  0.52692413  0.03717989  0.82446430     1.10100
Cl709      Cl  0.55818009  0.00648610  0.82455876    -0.87100
C710        C  0.45608615  0.97159091  0.91955895     0.95200
C711        C  0.45548298  0.97108747  0.72970418     0.95000
C712        C  0.58843888  0.16770440  0.65975835     0.79100
N713        N  0.58974537  0.15424653  0.95760592    -0.79200
C714        C  0.59489256  0.12808234  0.95634890     0.81500
N715        N  0.59749474  0.11439957  0.99072567    -0.79200
C716        C  0.59525452  0.12703840  0.69283973     0.81600
N717        N  0.59006171  0.15305003  0.69381904    -0.80900
C718        C  0.73444588  0.09275158  0.65752421     0.79100
N719        N  0.71615212  0.07840930  0.95629425    -0.79200
C720        C  0.68063859  0.05007137  0.95640707     0.81500
N721        N  0.66292488  0.03636402  0.65814117    -0.79200
C722        C  0.68104662  0.05065278  0.69292118     0.82500
N723        N  0.71653777  0.07909620  0.69245033    -0.80900
N724        N  0.98077576  0.46627205  0.88721169    -0.07300
N725        N  0.96011845  0.44922572  0.91863614    -0.59400
N726        N  0.99047897  0.49957122  0.79575698    -0.06900
N727        N  0.97597016  0.50570231  0.76629400    -0.61500
N728        N  0.98005009  0.46607813  0.79464275    -0.06500
N729        N  0.95859424  0.44881515  0.76374579    -0.59300
N730        N  0.99134251  0.49981953  0.88642248    -0.06200
N731        N  0.97773360  0.50623866  0.91666223    -0.61900
C732        C  0.95845246  0.47458720  0.93639723     0.94900
C733        C  0.95607077  0.47387156  0.74676872     0.94700
N734        N  0.10019013  0.58658191  0.79501547    -0.07400
N735        N  0.11797478  0.60830983  0.76479757    -0.59900
N736        N  0.06675548  0.57541206  0.88676379    -0.05600
N737        N  0.06086789  0.58877023  0.91797769    -0.61200
N738        N  0.10072985  0.58722539  0.88578527    -0.07500
N739        N  0.11884016  0.60930432  0.91576166    -0.60200
N740        N  0.06623977  0.57490585  0.79453260    -0.05200
N741        N  0.06004059  0.58801388  0.76343585    -0.61300
Mn742      Mn  0.02816063  0.53801202  0.84088122     1.18400
C743        C  0.09267304  0.60889857  0.74550499     0.97000
C744        C  0.09372791  0.61004338  0.93540009     0.97700
N745        N  0.01913317  0.42859366  0.79510916    -0.07500
N746        N  0.00124428  0.40687888  0.76485876    -0.63800
N747        N  0.05290074  0.44009100  0.88677059    -0.06300
N748        N  0.05871279  0.42667533  0.91790748    -0.64500
N749        N  0.01893054  0.42827700  0.88579399    -0.07000
N750        N  0.00075085  0.40615420  0.91562734    -0.64100
N751        N  0.05307370  0.44025887  0.79441422    -0.05900
N752        N  0.05917471  0.42718021  0.76309664    -0.64800
Mn753      Mn  0.99854500  0.44610427  0.84062372     1.10700
C754        C  0.02648060  0.40630684  0.74528644     0.98200
C755        C  0.02579169  0.40537073  0.93523798     0.98300
N756        N  0.13916919  0.54932171  0.88676413    -0.07000
N757        N  0.16019983  0.56653552  0.91795497    -0.62400
N758        N  0.12879579  0.51549468  0.79526334    -0.06300
N759        N  0.14310934  0.50916479  0.76565988    -0.59100
N760        N  0.13923684  0.54899179  0.79412084    -0.07600
N761        N  0.16050999  0.56605121  0.76306672    -0.61900
N762        N  0.12852754  0.51574208  0.88595070    -0.06600
N763        N  0.14244568  0.50947768  0.91590712    -0.59100
Mn764      Mn  0.12102898  0.56925539  0.84036555     1.20200
Mn765      Mn  0.09136090  0.47731038  0.84064080     1.10100
Cl766      Cl  0.05978524  0.50768532  0.84058699    -0.87100
C767        C  0.16205522  0.54125894  0.93550125     0.95200
C768        C  0.16287418  0.54086186  0.74599030     0.95000
C769        C  0.22077609  0.53794590  0.67272782     0.79100
N770        N  0.20685882  0.54018985  0.97168435    -0.79200
C771        C  0.18134412  0.54613397  0.97218110     0.81500
N772        N  0.16855254  0.54856893  0.67409664    -0.79200
C773        C  0.18156546  0.54541976  0.70873052     0.81600
N774        N  0.20712693  0.53942479  0.70793398    -0.80900
C775        C  0.97614718  0.33192206  0.67438205     0.79100
N776        N  0.98948586  0.34975131  0.97270974    -0.79200
C777        C  0.01765339  0.38537302  0.97215136     0.81500
N778        N  0.03184336  0.40363451  0.67357784    -0.79200
C779        C  0.01842295  0.38594164  0.70868098     0.81600
N780        N  0.99048888  0.35033993  0.70886206    -0.80900
C781        C  0.89894778  0.47729265  0.67309756     0.79100
N782        N  0.91352113  0.47562575  0.97225235    -0.79200
C783        C  0.93895769  0.46961418  0.97290751     0.81500
N784        N  0.95119639  0.46665677  0.67486925    -0.79200
C785        C  0.93759809  0.46927243  0.70939516     0.81600
N786        N  0.91198139  0.47519005  0.70841450    -0.80900
C787        C  0.14162207  0.68369463  0.67497745     0.79100
N788        N  0.12886686  0.66574352  0.97321520    -0.79200
C789        C  0.10157903  0.62984369  0.97248315     0.81500
N790        N  0.08766820  0.61143037  0.67379079    -0.79200
C791        C  0.10052165  0.62919350  0.70897894     0.81600
N792        N  0.12759537  0.66508470  0.70936657    -0.80900
N793        N  0.51913682  0.42846990  0.78999795    -0.07300
N794        N  0.50207644  0.40707307  0.75898054    -0.59400
N795        N  0.55292371  0.43975540  0.88162226    -0.06900
N796        N  0.55953874  0.42609780  0.91153986    -0.61500
N797        N  0.51921187  0.42877948  0.88258406    -0.06500
N798        N  0.50229231  0.40781219  0.91384867    -0.59300
N799        N  0.55283087  0.43941262  0.79092644    -0.06200
N800        N  0.55927868  0.42528458  0.76123710    -0.61900
C801        C  0.52747980  0.40515736  0.74172541     0.94900
C802        C  0.52786313  0.40632978  0.93128570     0.94700
N803        N  0.63941853  0.54906408  0.88262056    -0.07400
N804        N  0.66075692  0.56615536  0.91365858    -0.59900
N805        N  0.62834777  0.51532666  0.79086047    -0.05600
N806        N  0.64213702  0.50877594  0.76092466    -0.61200
N807        N  0.63915725  0.54897245  0.78994451    -0.07500
N808        N  0.66014194  0.56589586  0.75864517    -0.60200
N809        N  0.62866191  0.51544697  0.88152118    -0.05200
N810        N  0.64286897  0.50908610  0.91108780    -0.61300
Mn811      Mn  0.59115628  0.47703037  0.83623040     1.18400
C812        C  0.66282438  0.54083824  0.93073303     0.97000
C813        C  0.66183262  0.54040517  0.74118033     0.97700
N814        N  0.48055349  0.46662330  0.88258986    -0.07500
N815        N  0.45931667  0.44958501  0.91368081    -0.63800
N816        N  0.49163859  0.50036549  0.79101890    -0.06300
N817        N  0.47781063  0.50687410  0.76117732    -0.64500
N818        N  0.48083419  0.46672454  0.78994719    -0.07000
N819        N  0.45981390  0.44975266  0.75867114    -0.64100
N820        N  0.49132292  0.50024146  0.88167392    -0.05900
N821        N  0.47724900  0.50667305  0.91140751    -0.64800
Mn822      Mn  0.49859154  0.44630186  0.83627151     1.10700
C823        C  0.45735512  0.47495512  0.93097191     0.98200
C824        C  0.45808514  0.47520395  0.74136823     0.98300
N825        N  0.60080608  0.58720788  0.79053370    -0.07000
N826        N  0.61782370  0.60853814  0.75954033    -0.62400
N827        N  0.56690620  0.57584505  0.88214687    -0.06300
N828        N  0.56019961  0.58946844  0.91213801    -0.59100
N829        N  0.60062421  0.58683969  0.88313548    -0.07600
N830        N  0.61745206  0.60779753  0.91450638    -0.61900
N831        N  0.56710317  0.57622896  0.79151442    -0.06600
N832        N  0.56058662  0.59024751  0.76190275    -0.59100
Mn833      Mn  0.62135784  0.56938424  0.83655968     1.20200
Mn834      Mn  0.52878404  0.53862485  0.83657794     1.10100
Cl835      Cl  0.55997954  0.50783775  0.83640129    -0.87100
C836        C  0.59235100  0.61032591  0.74236698     0.95200
C837        C  0.59183265  0.60927428  0.93195454     0.95000
C838        C  0.53363325  0.34948784  0.00212370     0.79100
N839        N  0.53031496  0.36182735  0.70393819    -0.79200
C840        C  0.52306644  0.38644088  0.70456329     0.81500
N841        N  0.51985917  0.39931068  0.00316829    -0.79200
C842        C  0.52335024  0.38719447  0.96796137     0.81600
N843        N  0.53075669  0.36277516  0.96762027    -0.80900
C844        C  0.40179848  0.48161123  0.67012873     0.79100
N845        N  0.41472326  0.47833393  0.70472783    -0.79200
C846        C  0.43899396  0.47069694  0.70459091     0.81500
N847        N  0.45117328  0.46713309  0.66948317    -0.79200
C848        C  0.43857379  0.47057495  0.96801080     0.81600
N849        N  0.41428009  0.47823325  0.96846430    -0.80900
C850        C  0.71820885  0.53403108  0.66974049     0.79100
N851        N  0.70507605  0.53703042  0.70440345    -0.79200
C852        C  0.68093009  0.54483478  0.70436819     0.81500
N853        N  0.66893041  0.54859597  0.66929615    -0.79200
C854        C  0.68162381  0.54525154  0.96775672     0.81600
N855        N  0.70595551  0.53763252  0.96810178    -0.80900
C856        C  0.58684593  0.66663773  0.67016117     0.79100
N857        N  0.58959294  0.65369664  0.70506018    -0.79200
C858        C  0.59669465  0.62899837  0.70536499     0.81500
N859        N  0.59981109  0.61614839  0.67050347    -0.79200
C860        C  0.59624600  0.62831177  0.96880842     0.81600
N861        N  0.58909474  0.65295192  0.96880188    -0.80900
C862        C  0.87185065  0.48503273  0.67196214    -0.13100
C863        C  0.84850521  0.47564764  0.97241780     0.02400
C864        C  0.82448072  0.48481979  0.97248980    -0.13600
C865        C  0.82299413  0.50325488  0.67130091     0.17200
C866        C  0.84583387  0.51237123  0.70413375    -0.10700
C867        C  0.86985889  0.50321414  0.70431524    -0.03600
H868        H  0.80651090  0.47719998  0.94741238     0.03800
C869        C  0.79646653  0.51150211  0.67059716     0.19200
H870        H  0.88755708  0.51103411  0.72967992     0.08900
C871        C  0.76629026  0.49223186  0.69569206    -0.17000
C872        C  0.74027754  0.49878584  0.69553275     0.01900
C873        C  0.74436430  0.52529631  0.66997546    -0.12300
C874        C  0.77422261  0.54399761  0.97754970    -0.02400
C875        C  0.80022846  0.53738179  0.97779158    -0.07500
H876        H  0.76276358  0.47164517  0.71518467     0.04900
H877        H  0.77771847  0.56435322  0.95768953     0.08300
Br878      Br  0.84607250  0.53849328  0.74877570    -0.07200
Br879      Br  0.84613698  0.44878112  0.92713214    -0.04200
Br880      Br  0.69855063  0.46869699  0.72867129    -0.01300
Br881      Br  0.84107673  0.56519545  0.94300278    -0.05700
C882        C  0.37562493  0.49040283  0.67036849    -0.13100
C883        C  0.37751759  0.51431204  0.69856025     0.02400
C884        C  0.35152827  0.52090762  0.69827760    -0.13600
C885        C  0.32376906  0.50458199  0.66996163     0.17200
C886        C  0.32243155  0.48167332  0.97440009    -0.10700
C887        C  0.34815883  0.47469157  0.97483630    -0.03600
H888        H  0.35325646  0.53932920  0.71994441     0.03800
C889        C  0.29707196  0.51260014  0.67059776     0.19200
H890        H  0.34639400  0.45651439  0.95279091     0.08900
C891        C  0.29887987  0.53536040  0.97486852    -0.17000
C892        C  0.27465040  0.54428664  0.97510543     0.01900
C893        C  0.24790905  0.53034582  0.67177582    -0.12300
C894        C  0.24652207  0.50782311  0.70109756    -0.02400
C895        C  0.27066694  0.49880019  0.70057421    -0.07500
H896        H  0.31951784  0.54650707  0.95207032     0.04900
H897        H  0.22608269  0.49653248  0.72411973     0.08300
Br898      Br  0.28550282  0.45875613  0.93438525    -0.07200
Br899      Br  0.41638140  0.54121705  0.73608121    -0.04200
Br900      Br  0.28117213  0.57724227  0.93486663    -0.01300
Br901      Br  0.26582080  0.46649722  0.74052524    -0.05700
C902        C  0.77260419  0.12494062  0.65762980    -0.13100
C903        C  0.78646977  0.15289968  0.96256881     0.02400
C904        C  0.82205186  0.18390041  0.96592217    -0.13600
C905        C  0.84418969  0.18791630  0.66390733     0.17200
C906        C  0.83073422  0.16000294  0.69181721    -0.10700
C907        C  0.79525009  0.12881912  0.68847474    -0.03600
H908        H  0.83211054  0.20573488  0.94486829     0.03800
C909        C  0.87973305  0.22300736  0.66901953     0.19200
H910        H  0.78516253  0.10766546  0.71043345     0.08900
C911        C  0.88394448  0.24599812  0.69947864    -0.17000
C912        C  0.91546161  0.28126656  0.70255615     0.01900
C913        C  0.94366167  0.29398836  0.67466761    -0.12300
C914        C  0.93964088  0.27050112  0.97808846    -0.02400
C915        C  0.90799849  0.23523975  0.97514059    -0.07500
H916        H  0.86191331  0.23687080  0.72002704     0.04900
H917        H  0.96103212  0.27975834  0.95659310     0.08300
Br918      Br  0.85977138  0.16349810  0.73506586    -0.07200
Br919      Br  0.75776216  0.15274537  0.92099950    -0.04200
Br920      Br  0.91613117  0.31127663  0.74295671    -0.01300
Br921      Br  0.90436255  0.20475094  0.93346616    -0.05700
C922        C  0.58167985  0.19547135  0.66135774    -0.13100
C923        C  0.59342184  0.22002067  0.69353985     0.02400
C924        C  0.58472042  0.24439860  0.69445483    -0.13600
C925        C  0.56467377  0.24517033  0.99714267     0.17200
C926        C  0.55347930  0.22134976  0.96480245    -0.10700
C927        C  0.56200309  0.19683825  0.96373991    -0.03600
H928        H  0.59394516  0.26316669  0.71907712     0.03800
C929        C  0.55657726  0.27173232  0.99896056     0.19200
H930        H  0.55252713  0.17828201  0.93889678     0.08900
C931        C  0.57678172  0.30291708  0.97554335    -0.17000
C932        C  0.57013685  0.32883868  0.97671789     0.01900
C933        C  0.54249094  0.32349553  0.00137378    -0.12300
C934        C  0.52283977  0.29261669  0.69216642    -0.02400
C935        C  0.52969631  0.26680489  0.69109393    -0.07500
H936        H  0.59811980  0.30728388  0.95662672     0.04900
H937        H  0.50169744  0.28826832  0.71141965     0.08300
Br938      Br  0.52555694  0.22066043  0.92206091    -0.07200
Br939      Br  0.62316101  0.22362617  0.73618041    -0.04200
Br940      Br  0.60153638  0.37220379  0.94640644    -0.01300
Br941      Br  0.50129591  0.22486507  0.72416889    -0.05700
C942        C  0.34311649  0.89078031  0.65734072    -0.13100
C943        C  0.32921061  0.86195809  0.96337047     0.02400
C944        C  0.29336584  0.83154764  0.96659479    -0.13600
C945        C  0.27094750  0.82898871  0.66338448     0.17200
C946        C  0.28432850  0.85789561  0.69000777    -0.10700
C947        C  0.32019661  0.88850420  0.68685973    -0.03600
H948        H  0.28334645  0.80894423  0.94659438     0.03800
C949        C  0.23544683  0.79407725  0.66921992     0.19200
H950        H  0.33036688  0.91041447  0.70790845     0.08900
C951        C  0.23116250  0.77252407  0.70127258    -0.17000
C952        C  0.20039822  0.73686913  0.70464062     0.01900
C953        C  0.17298014  0.72224712  0.67535324    -0.12300
C954        C  0.17687738  0.74450119  0.97736874    -0.02400
C955        C  0.20780320  0.78015522  0.97416329    -0.07500
H956        H  0.25277388  0.78300519  0.72278066     0.04900
H957        H  0.15606099  0.73393244  0.95485678     0.08300
Br958      Br  0.25455836  0.85638454  0.73113342    -0.07200
Br959      Br  0.35825019  0.86005348  0.92389194    -0.04200
Br960      Br  0.20015601  0.70925290  0.74760857    -0.01300
Br961      Br  0.21156276  0.80884829  0.93039883    -0.05700
C962        C  0.53895571  0.82060024  0.65822642    -0.13100
C963        C  0.56379046  0.82193645  0.96540126     0.02400
C964        C  0.56998383  0.79569989  0.96802027    -0.13600
C965        C  0.55193771  0.76807027  0.66303621     0.17200
C966        C  0.52721193  0.76665541  0.68903070    -0.10700
C967        C  0.52102636  0.79285317  0.68661031    -0.03600
H968        H  0.58936919  0.79711519  0.94821292     0.03800
C969        C  0.55986151  0.74142208  0.66551284     0.19200
H970        H  0.50181062  0.79132279  0.70681379     0.08900
C971        C  0.58348400  0.74536950  0.69495739    -0.17000
C972        C  0.59254482  0.72129327  0.69732607     0.01900
C973        C  0.57789759  0.69267273  0.66960492    -0.12300
C974        C  0.55408329  0.68883068  0.97360463    -0.02400
C975        C  0.54487827  0.71275124  0.97157772    -0.07500
H976        H  0.59526940  0.76758612  0.71587809     0.04900
H977        H  0.54218473  0.66683277  0.95238195     0.08300
Br978      Br  0.50077598  0.72900025  0.72769198    -0.07200
Br979      Br  0.59214750  0.86015680  0.92761282    -0.04200
Br980      Br  0.62676962  0.73054730  0.73742696    -0.01300
Br981      Br  0.51108250  0.70484500  0.93173929    -0.05700
loop_ 
_geom_bond_atom_site_label_1 
_geom_bond_atom_site_label_2 
_geom_bond_distance 
_geom_bond_site_symmetry_2 
_ccdc_geom_bond_type 
C1            N6   1.357   1_556  A
C1          N656   1.357       .  A
C1          C308   1.479       .  S
N2            C3   1.358       .  A
N2          C328   1.357       .  A
C3            N4   1.358       .  A
C3           C33   1.459       .  S
N4          C332   1.357       .  A
C5            N6   1.357       .  A
C5          N658   1.357   1_554  A
C5           C32   1.459       .  S
C7           N12   1.357   1_556  A
C7          N662   1.355       .  A
C7          C288   1.476       .  S
N8            C9   1.355       .  A
N8          C334   1.355       .  A
C9          N337   1.357       .  A
C9           C56   1.455       .  S
N10          C11   1.358   1_556  A
N10         C663   1.357       .  A
C11          N12   1.357       .  A
C11          C57   1.456       .  S
N13          N14   1.316       .  A
N13          N19   1.316       .  A
N13         Mn42   2.187       .  S
N14          C21   1.348       .  A
N15          N17   1.316       .  A
N15          N16   1.323       .  A
N15         Mn31   2.205   1_545  S
N16          C22   1.353       .  A
N17          N18   1.316       .  A
N17         Mn42   2.188       .  S
N18          C22   1.348       .  A
N19          N20   1.323       .  A
N19         Mn31   2.208   1_545  S
N20          C21   1.353       .  A
C21          C66   1.455       .  S
C22          C68   1.456       .  S
N23          N29   1.316       .  A
N23          N24   1.324       .  A
N23         Mn53   2.213       .  S
N24          C32   1.354       .  A
N25          N26   1.317       .  A
N25          N27   1.315       .  A
N25         Mn31   2.185       .  S
N26          C33   1.348       .  A
N27          N28   1.324       .  A
N27         Mn53   2.213       .  S
N28          C33   1.354       .  A
N29          N30   1.317       .  A
N29         Mn31   2.188       .  S
N30          C32   1.348       .  A
Mn31        Cl55   2.548   1_565  S
N34          N35   1.323       .  A
N34          N40   1.315       .  A
N34         Mn42   2.208       .  S
N35          C43   1.353       .  A
N36          N38   1.315       .  A
N36          N37   1.319       .  A
N36         Mn54   2.192       .  S
N37          C44   1.349       .  A
N38          N39   1.323       .  A
N38         Mn42   2.214       .  S
N39          C44   1.354       .  A
N40          N41   1.316       .  A
N40         Mn54   2.186       .  S
N41          C43   1.348       .  A
Mn42        Cl55   2.544       .  S
C43          C62   1.456       .  S
C44          C60   1.462       .  S
N45          N46   1.316       .  A
N45          N51   1.316       .  A
N45         Mn53   2.190       .  S
N46          C56   1.348       .  A
N47          N48   1.323   1_565  A
N47          N49   1.316       .  A
N47         Mn54   2.207   1_565  S
N48          C57   1.352   1_545  A
N49          N50   1.317       .  A
N49         Mn53   2.189       .  S
N50          C57   1.348       .  A
N51          N52   1.323   1_565  A
N51         Mn54   2.205   1_565  S
N52          C56   1.352   1_545  A
Mn53        Cl55   2.545   1_565  S
Mn54        Cl55   2.548       .  S
C58          N63   1.356   1_556  A
C58         N713   1.361       .  A
C58         C268   1.486       .  S
N59          C60   1.360       .  A
N59         C385   1.361       .  A
C60          N61   1.357       .  A
N61         C389   1.356       .  A
C62          N63   1.355       .  A
C62         N715   1.356   1_554  A
C64          N69   1.356   1_556  A
C64         N719   1.354       .  A
C64         C248   1.478       .  S
N65          C66   1.355       .  A
N65         C391   1.354       .  A
C66         N394   1.358       .  A
N67          C68   1.358   1_556  A
N67         C720   1.358       .  A
C68          N69   1.356       .  A
N70          N71   1.323       .  A
N70          N76   1.315       .  A
N70         Mn99   2.210       .  S
N71          C78   1.353       .  A
N72          N74   1.315       .  A
N72          N73   1.318       .  A
N72         Mn88   2.188   1_655  S
N73          C79   1.349       .  A
N74          N75   1.324       .  A
N74         Mn99   2.215       .  S
N75          C79   1.355       .  A
N76          N77   1.316       .  A
N76         Mn88   2.184   1_655  S
N77          C78   1.348       .  A
C78         C129   1.456       .  S
C79         C131   1.462       .  S
N80          N86   1.316       .  A
N80          N81   1.316       .  A
N80        Mn110   2.192       .  S
N81          C89   1.349       .  A
N82          N83   1.323       .  A
N82          N84   1.316       .  A
N82         Mn88   2.204       .  S
N83          C90   1.352       .  A
N84          N85   1.317       .  A
N84        Mn110   2.192       .  S
N85          C90   1.349       .  A
N86          N87   1.323       .  A
N86         Mn88   2.202       .  S
N87          C89   1.352       .  A
Mn88       Cl112   2.548       .  S
C89         C137   1.455       .  S
C90         C135   1.457       .  S
N91          N92   1.316       .  A
N91          N97   1.316       .  A
N91         Mn99   2.190   1_455  S
N92         C100   1.349       .  A
N93          N95   1.316       .  A
N93          N94   1.323       .  A
N93        Mn111   2.208       .  S
N94         C101   1.353       .  A
N95          N96   1.317       .  A
N95         Mn99   2.189   1_455  S
N96         C101   1.348       .  A
N97          N98   1.323       .  A
N97        Mn111   2.203       .  S
N98         C100   1.352       .  A
Mn99       Cl112   2.545   1_655  S
C100        C125   1.455       .  S
C101        C123   1.457       .  S
N102        N103   1.324       .  A
N102        N108   1.316       .  A
N102       Mn110   2.214       .  S
N103        C113   1.354       .  A
N104        N105   1.318       .  A
N104        N106   1.315       .  A
N104       Mn111   2.189       .  S
N105        C114   1.349       .  A
N106        N107   1.324       .  A
N106       Mn110   2.217       .  S
N107        C114   1.355       .  A
N108        N109   1.316       .  A
N108       Mn111   2.185       .  S
N109        C113   1.348       .  A
Mn110      Cl112   2.545       .  S
Mn111      Cl112   2.548       .  S
C113        C117   1.458       .  S
C114        C119   1.463       .  S
C115        N120   1.360       .  A
C115        N770   1.357   1_554  A
C115        C239   1.485       .  S
N116        C117   1.356       .  A
N116        C442   1.357       .  A
C117        N445   1.357       .  A
N118        C119   1.358       .  A
N118        C771   1.357   1_554  A
C119        N120   1.360       .  A
C121        N126   1.353       .  A
C121        N776   1.357   1_554  A
C121        C259   1.476       .  S
N122        C123   1.357   1_655  A
N122        C448   1.357       .  A
C123        N451   1.358       .  A
N124        C125   1.358       .  A
N124        C777   1.358   1_554  A
C125        N126   1.354   1_455  A
C127        N132   1.361       .  A
C127        N782   1.355   1_554  A
C127        C208   1.488       .  S
N128        C129   1.355       .  A
N128        C454   1.355       .  A
C129        N457   1.356       .  A
N130        C131   1.357       .  A
N130        C783   1.356   1_554  A
C131        N132   1.360       .  A
C133        N138   1.354       .  A
C133        N788   1.357   1_554  A
C133        C299   1.479       .  S
N134        C135   1.357       .  A
N134        C460   1.357       .  A
C135        N463   1.358       .  A
N136        C137   1.357       .  A
N136        C789   1.358   1_554  A
C137        N138   1.354       .  A
N139        N140   1.324       .  A
N139        N145   1.316       .  A
N139       Mn168   2.215       .  S
N140        C147   1.354       .  A
N141        N143   1.316       .  A
N141        N142   1.317       .  A
N141       Mn157   2.188       .  S
N142        C148   1.348       .  A
N143        N144   1.324       .  A
N143       Mn168   2.214       .  S
N144        C148   1.354       .  A
N145        N146   1.317       .  A
N145       Mn157   2.190       .  S
N146        C147   1.348       .  A
C147        C186   1.461       .  S
C148        C188   1.459       .  S
N149        N155   1.316       .  A
N149        N150   1.324       .  A
N149       Mn179   2.215       .  S
N150        C158   1.354       .  A
N151        N152   1.317       .  A
N151        N153   1.316       .  A
N151       Mn157   2.187       .  S
N152        C159   1.348       .  A
N153        N154   1.324       .  A
N153       Mn179   2.219       .  S
N154        C159   1.355       .  A
N155        N156   1.317       .  A
N155       Mn157   2.189       .  S
N156        C158   1.348       .  A
Mn157      Cl181   2.550       .  S
C158        C200   1.461       .  S
C159        C198   1.461       .  S
N160        N161   1.324       .  A
N160        N166   1.316       .  A
N160       Mn168   2.216       .  S
N161        C169   1.354       .  A
N162        N164   1.316       .  A
N162        N163   1.317       .  A
N162       Mn180   2.188       .  S
N163        C170   1.348       .  A
N164        N165   1.324       .  A
N164       Mn168   2.215       .  S
N165        C170   1.354       .  A
N166        N167   1.317       .  A
N166       Mn180   2.186       .  S
N167        C169   1.348       .  A
Mn168      Cl181   2.547       .  S
C169        C194   1.460       .  S
C170        C192   1.460       .  S
N171        N172   1.324       .  A
N171        N177   1.316       .  A
N171       Mn179   2.214       .  S
N172        C182   1.354       .  A
N173        N174   1.317       .  A
N173        N175   1.316       .  A
N173       Mn180   2.187       .  S
N174        C183   1.348       .  A
N175        N176   1.324       .  A
N175       Mn179   2.217       .  S
N176        C183   1.354       .  A
N177        N178   1.317       .  A
N177       Mn180   2.186       .  S
N178        C182   1.348       .  A
Mn179      Cl181   2.547       .  S
Mn180      Cl181   2.550       .  S
C182        C204   1.459       .  S
C183        C206   1.460       .  S
C184        N189   1.356       .  A
C184        N512   1.358       .  A
C184        C279   1.477       .  S
N185        C186   1.359       .  A
N185        C838   1.358       .  A
C186        N841   1.359       .  A
N187        C188   1.358       .  A
N187        C513   1.359       .  A
C188        N189   1.356       .  A
C190        N191   1.357       .  A
C190        N849   1.358   1_554  A
C190        C228   1.482       .  S
N191        C192   1.357       .  A
C192        N193   1.358       .  A
N193        C848   1.358   1_554  A
C194        N195   1.359       .  A
C194        N520   1.358       .  A
N195        C517   1.358       .  A
C196        N197   1.357       .  A
C196        N855   1.358   1_554  A
C196        C219   1.480       .  S
N197        C198   1.357       .  A
C198        N199   1.358       .  A
N199        C854   1.359   1_554  A
C200        N201   1.359       .  A
C200        N526   1.359       .  A
N201        C523   1.358       .  A
C202        N203   1.358       .  A
C202        N861   1.358   1_554  A
C202        C319   1.482       .  S
N203        C204   1.358       .  A
C204        N205   1.358       .  A
N205        C860   1.357   1_554  A
C206        N207   1.357       .  A
C206        N532   1.357       .  A
N207        C529   1.358       .  A
C208        C213   1.408       .  A
C208        C863   1.419   1_554  A
C209        C210   1.400       .  A
C209        C535   1.419       .  A
C209       Br225   1.922       .  S
C210        C538   1.400       .  A
C210        H214   1.084       .  S
C211        C215   1.480       .  S
C211        C212   1.406       .  A
C211        C864   1.400   1_554  A
C212        C213   1.399       .  A
C212       Br224   1.918       .  S
C213        H216   1.083       .  S
C215        C217   1.401       .  A
C215        C875   1.408   1_554  A
C217        C218   1.399       .  A
C217        H222   1.084       .  S
C218        C219   1.413       .  A
C218       Br226   1.920       .  S
C219        C874   1.405   1_554  A
C220        C221   1.401       .  A
C220        C546   1.405       .  A
C220        H223   1.084       .  S
C221        C542   1.408       .  A
C221       Br227   1.919       .  S
C228        C229   1.415       .  A
C228        C887   1.406   1_554  A
C229        C230   1.399       .  A
C229       Br245   1.921       .  S
C230        C231   1.401       .  A
C230        H234   1.084       .  S
C231        C235   1.479       .  S
C231        C886   1.407   1_554  A
C232        C233   1.400       .  A
C232        C558   1.407       .  A
C232       Br244   1.919       .  S
C233        C555   1.406       .  A
C233        H236   1.083       .  S
C235        C241   1.407       .  A
C235        C891   1.401   1_554  A
C237        C238   1.400       .  A
C237        C562   1.401       .  A
C237        H242   1.083       .  S
C238        C566   1.416       .  A
C238       Br246   1.922       .  S
C239        C240   1.407       .  A
C239        C892   1.416   1_554  A
C240        C241   1.400       .  A
C240        H243   1.083       .  S
C241       Br247   1.919       .  S
C248        C253   1.406   1_556  A
C248        C903   1.416       .  A
C249        C250   1.397       .  A
C249        C575   1.416       .  A
C249       Br265   1.923       .  S
C250        C578   1.400       .  A
C250        H254   1.084       .  S
C251        C255   1.473   1_556  S
C251        C252   1.405   1_556  A
C251        C904   1.400       .  A
C252        C253   1.397       .  A
C252       Br264   1.918       .  S
C253        H256   1.084       .  S
C255        C257   1.400       .  A
C255        C915   1.406   1_554  A
C257        C258   1.396       .  A
C257        H262   1.084       .  S
C258        C259   1.415       .  A
C258       Br266   1.923       .  S
C259        C914   1.405   1_554  A
C260        C261   1.398       .  A
C260        C586   1.405       .  A
C260        H263   1.084       .  S
C261        C582   1.406       .  A
C261       Br267   1.918       .  S
C268        C269   1.418   1_556  A
C268        C927   1.407       .  A
C269        C270   1.399       .  A
C269       Br285   1.922       .  S
C270        C925   1.399   1_554  A
C270        H274   1.084       .  S
C271        C275   1.477       .  S
C271        C272   1.406       .  A
C271        C597   1.399       .  A
C272        C273   1.399       .  A
C272       Br284   1.918       .  S
C273        C595   1.407       .  A
C273        H276   1.083       .  S
C275        C277   1.401       .  A
C275        C608   1.408       .  A
C277        C278   1.398       .  A
C277        H282   1.084       .  S
C278        C279   1.412       .  A
C278       Br286   1.920       .  S
C279        C607   1.404       .  A
C280        C281   1.400       .  A
C280        C933   1.404       .  A
C280        H283   1.084       .  S
C281        C929   1.408   1_554  A
C281       Br287   1.918       .  S
C288        C293   1.406   1_556  A
C288        C943   1.414       .  A
C289        C290   1.395       .  A
C289        C615   1.414       .  A
C289       Br305   1.922       .  S
C290        C618   1.400       .  A
C290        H294   1.084       .  S
C291        C295   1.472   1_556  S
C291        C292   1.405   1_556  A
C291        C944   1.400       .  A
C292        C293   1.398       .  A
C292       Br304   1.918       .  S
C293        H296   1.084       .  S
C295        C297   1.399       .  A
C295        C955   1.404   1_554  A
C297        C298   1.396       .  A
C297        H302   1.084       .  S
C298        C299   1.416       .  A
C298       Br306   1.923       .  S
C299        C954   1.407   1_554  A
C300        C301   1.398       .  A
C300        C626   1.407       .  A
C300        H303   1.084       .  S
C301        C622   1.405       .  A
C301       Br307   1.918       .  S
C308        C313   1.405   1_556  A
C308        C963   1.414       .  A
C309        C310   1.400       .  A
C309        C635   1.414       .  A
C309       Br325   1.921       .  S
C310        C638   1.402       .  A
C310        H314   1.084       .  S
C311        C315   1.477       .  S
C311        C312   1.405   1_556  A
C311        C964   1.402       .  A
C312        C313   1.398       .  A
C312       Br324   1.917       .  S
C313        H316   1.084       .  S
C315        C317   1.401   1_556  A
C315        C975   1.405       .  A
C317        C318   1.401       .  A
C317        H322   1.083       .  S
C318        C319   1.414       .  A
C318       Br326   1.921       .  S
C319        C974   1.407   1_554  A
C320        C321   1.398       .  A
C320        C646   1.407       .  A
C320        H323   1.083       .  S
C321        C642   1.405       .  A
C321       Br327   1.918       .  S
C328        N333   1.357       .  A
C328        C635   1.479       .  S
N329        C655   1.357       .  A
N329        C330   1.358       .  A
C330        N331   1.358       .  A
C330        C360   1.459       .  S
N331        C659   1.357       .  A
C332        N333   1.357       .  A
C332        C359   1.459       .  S
C334        N339   1.357       .  A
C334        C615   1.476       .  S
N335        C661   1.355       .  A
N335        C336   1.355       .  A
C336        N664   1.357       .  A
C336        C383   1.455       .  S
N337        C338   1.358       .  A
C338        N339   1.357       .  A
C338        C384   1.456       .  S
N340        N341   1.316       .  A
N340        N346   1.316       .  A
N340       Mn369   2.187       .  S
N341        C348   1.348       .  A
N342        N344   1.316       .  A
N342        N343   1.323       .  A
N342       Mn358   2.205   1_545  S
N343        C349   1.353       .  A
N344        N345   1.316       .  A
N344       Mn369   2.188       .  S
N345        C349   1.348       .  A
N346        N347   1.323       .  A
N346       Mn358   2.208   1_545  S
N347        C348   1.353       .  A
C348        C393   1.455       .  S
C349        C395   1.456       .  S
N350        N356   1.316       .  A
N350        N351   1.324       .  A
N350       Mn380   2.213       .  S
N351        C359   1.354       .  A
N352        N353   1.317       .  A
N352        N354   1.315       .  A
N352       Mn358   2.185       .  S
N353        C360   1.348       .  A
N354        N355   1.324       .  A
N354       Mn380   2.213       .  S
N355        C360   1.354       .  A
N356        N357   1.317       .  A
N356       Mn358   2.188       .  S
N357        C359   1.348       .  A
Mn358      Cl382   2.548   1_565  S
N361        N362   1.323       .  A
N361        N367   1.315       .  A
N361       Mn369   2.208       .  S
N362        C370   1.353       .  A
N363        N365   1.315       .  A
N363        N364   1.319       .  A
N363       Mn381   2.192       .  S
N364        C371   1.349       .  A
N365        N366   1.323       .  A
N365       Mn369   2.214       .  S
N366        C371   1.354       .  A
N367        N368   1.316       .  A
N367       Mn381   2.186       .  S
N368        C370   1.348       .  A
Mn369      Cl382   2.544       .  S
C370        C389   1.456       .  S
C371        C387   1.462       .  S
N372        N373   1.316       .  A
N372        N378   1.316       .  A
N372       Mn380   2.190       .  S
N373        C383   1.348       .  A
N374        N375   1.323   1_565  A
N374        N376   1.316       .  A
N374       Mn381   2.207   1_565  S
N375        C384   1.352   1_545  A
N376        N377   1.317       .  A
N376       Mn380   2.189       .  S
N377        C384   1.348       .  A
N378        N379   1.323   1_565  A
N378       Mn381   2.205   1_565  S
N379        C383   1.352   1_545  A
Mn380      Cl382   2.545   1_565  S
Mn381      Cl382   2.548       .  S
C385        N390   1.356       .  A
C385        C595   1.486       .  S
N386        C712   1.361       .  A
N386        C387   1.360       .  A
C387        N388   1.357       .  A
N388        C716   1.356       .  A
C389        N390   1.355       .  A
C391        N396   1.356       .  A
C391        C575   1.478       .  S
N392        C718   1.354       .  A
N392        C393   1.355       .  A
C393        N721   1.358       .  A
N394        C395   1.358       .  A
C395        N396   1.356       .  A
N397        N398   1.323       .  A
N397        N403   1.315       .  A
N397       Mn426   2.210       .  S
N398        C405   1.353       .  A
N399        N401   1.315       .  A
N399        N400   1.318       .  A
N399       Mn415   2.188   1_655  S
N400        C406   1.349       .  A
N401        N402   1.324       .  A
N401       Mn426   2.215       .  S
N402        C406   1.355       .  A
N403        N404   1.316       .  A
N403       Mn415   2.184   1_655  S
N404        C405   1.348       .  A
C405        C456   1.456       .  S
C406        C458   1.462       .  S
N407        N413   1.316       .  A
N407        N408   1.316       .  A
N407       Mn437   2.192       .  S
N408        C416   1.349       .  A
N409        N410   1.323       .  A
N409        N411   1.316       .  A
N409       Mn415   2.204       .  S
N410        C417   1.352       .  A
N411        N412   1.317       .  A
N411       Mn437   2.192       .  S
N412        C417   1.349       .  A
N413        N414   1.323       .  A
N413       Mn415   2.202       .  S
N414        C416   1.352       .  A
Mn415      Cl439   2.548       .  S
C416        C464   1.455       .  S
C417        C462   1.457       .  S
N418        N419   1.316       .  A
N418        N424   1.316       .  A
N418       Mn426   2.190   1_455  S
N419        C427   1.349       .  A
N420        N422   1.316       .  A
N420        N421   1.323       .  A
N420       Mn438   2.208       .  S
N421        C428   1.353       .  A
N422        N423   1.317       .  A
N422       Mn426   2.189   1_455  S
N423        C428   1.348       .  A
N424        N425   1.323       .  A
N424       Mn438   2.203       .  S
N425        C427   1.352       .  A
Mn426      Cl439   2.545   1_655  S
C427        C452   1.455       .  S
C428        C450   1.457       .  S
N429        N430   1.324       .  A
N429        N435   1.316       .  A
N429       Mn437   2.214       .  S
N430        C440   1.354       .  A
N431        N432   1.318       .  A
N431        N433   1.315       .  A
N431       Mn438   2.189       .  S
N432        C441   1.349       .  A
N433        N434   1.324       .  A
N433       Mn437   2.217       .  S
N434        C441   1.355       .  A
N435        N436   1.316       .  A
N435       Mn438   2.185       .  S
N436        C440   1.348       .  A
Mn437      Cl439   2.545       .  S
Mn438      Cl439   2.548       .  S
C440        C444   1.458       .  S
C441        C446   1.463       .  S
C442        N447   1.360       .  A
C442        C566   1.485       .  S
N443        C769   1.357       .  A
N443        C444   1.356       .  A
C444        N772   1.357       .  A
N445        C446   1.358       .  A
C446        N447   1.360       .  A
C448        N453   1.353       .  A
C448        C586   1.476       .  S
N449        C775   1.357       .  A
N449        C450   1.357   1_655  A
C450        N778   1.358       .  A
N451        C452   1.358       .  A
C452        N453   1.354   1_455  A
C454        N459   1.361       .  A
C454        C535   1.488       .  S
N455        C781   1.355       .  A
N455        C456   1.355       .  A
C456        N784   1.356       .  A
N457        C458   1.357       .  A
C458        N459   1.360       .  A
C460        N465   1.354       .  A
C460        C626   1.479       .  S
N461        C787   1.357       .  A
N461        C462   1.357       .  A
C462        N790   1.358       .  A
N463        C464   1.357       .  A
C464        N465   1.354       .  A
N466        N467   1.324       .  A
N466        N472   1.316       .  A
N466       Mn495   2.215       .  S
N467        C474   1.354       .  A
N468        N470   1.316       .  A
N468        N469   1.317       .  A
N468       Mn484   2.188       .  S
N469        C475   1.348       .  A
N470        N471   1.324       .  A
N470       Mn495   2.214       .  S
N471        C475   1.354       .  A
N472        N473   1.317       .  A
N472       Mn484   2.190       .  S
N473        C474   1.348       .  A
C474        C513   1.461       .  S
C475        C515   1.459       .  S
N476        N482   1.316       .  A
N476        N477   1.324       .  A
N476       Mn506   2.215       .  S
N477        C485   1.354       .  A
N478        N479   1.317       .  A
N478        N480   1.316       .  A
N478       Mn484   2.187       .  S
N479        C486   1.348       .  A
N480        N481   1.324       .  A
N480       Mn506   2.219       .  S
N481        C486   1.355       .  A
N482        N483   1.317       .  A
N482       Mn484   2.189       .  S
N483        C485   1.348       .  A
Mn484      Cl508   2.550       .  S
C485        C527   1.461       .  S
C486        C525   1.461       .  S
N487        N488   1.324       .  A
N487        N493   1.316       .  A
N487       Mn495   2.216       .  S
N488        C496   1.354       .  A
N489        N491   1.316       .  A
N489        N490   1.317       .  A
N489       Mn507   2.188       .  S
N490        C497   1.348       .  A
N491        N492   1.324       .  A
N491       Mn495   2.215       .  S
N492        C497   1.354       .  A
N493        N494   1.317       .  A
N493       Mn507   2.186       .  S
N494        C496   1.348       .  A
Mn495      Cl508   2.547       .  S
C496        C521   1.460       .  S
C497        C519   1.460       .  S
N498        N499   1.324       .  A
N498        N504   1.316       .  A
N498       Mn506   2.214       .  S
N499        C509   1.354       .  A
N500        N501   1.317       .  A
N500        N502   1.316       .  A
N500       Mn507   2.187       .  S
N501        C510   1.348       .  A
N502        N503   1.324       .  A
N502       Mn506   2.217       .  S
N503        C510   1.354       .  A
N504        N505   1.317       .  A
N504       Mn507   2.186       .  S
N505        C509   1.348       .  A
Mn506      Cl508   2.547       .  S
Mn507      Cl508   2.550       .  S
C509        C531   1.459       .  S
C510        C533   1.460       .  S
C511        N839   1.358       .  A
C511        N516   1.356       .  A
C511        C606   1.477       .  S
N512        C513   1.359       .  A
N514        C840   1.359       .  A
N514        C515   1.358       .  A
C515        N516   1.356       .  A
C517        N518   1.357       .  A
C517        C555   1.482       .  S
N518        C519   1.357       .  A
C519        N520   1.358       .  A
C521        N847   1.358       .  A
C521        N522   1.359       .  A
N522        C844   1.358       .  A
C523        N524   1.357       .  A
C523        C546   1.480       .  S
N524        C525   1.357       .  A
C525        N526   1.358       .  A
C527        N853   1.359       .  A
C527        N528   1.359       .  A
N528        C850   1.358       .  A
C529        N530   1.358       .  A
C529        C646   1.482       .  S
N530        C531   1.358       .  A
C531        N532   1.358       .  A
C533        N859   1.357       .  A
C533        N534   1.357       .  A
N534        C856   1.358       .  A
C535        C540   1.408       .  A
C536        C862   1.419       .  A
C536        C537   1.400       .  A
C536       Br552   1.922       .  S
C537        C865   1.400       .  A
C537        H541   1.084       .  S
C538        C542   1.480       .  S
C538        C539   1.406       .  A
C539        C540   1.399       .  A
C539       Br551   1.918       .  S
C540        H543   1.083       .  S
C542        C544   1.401       .  A
C544        C545   1.399       .  A
C544        H549   1.084       .  S
C545        C546   1.413       .  A
C545       Br553   1.920       .  S
C547        C873   1.405       .  A
C547        C548   1.401       .  A
C547        H550   1.084       .  S
C548        C869   1.408       .  A
C548       Br554   1.919       .  S
C555        C556   1.415       .  A
C556        C557   1.399       .  A
C556       Br572   1.921       .  S
C557        C558   1.401       .  A
C557        H561   1.084       .  S
C558        C562   1.479       .  S
C559        C885   1.407       .  A
C559        C560   1.400       .  A
C559       Br571   1.919       .  S
C560        C882   1.406       .  A
C560        H563   1.084       .  S
C562        C568   1.407       .  A
C564        C889   1.401       .  A
C564        C565   1.400       .  A
C564        H569   1.083       .  S
C565        C893   1.416       .  A
C565       Br573   1.922       .  S
C566        C567   1.407       .  A
C567        C568   1.400       .  A
C567        H570   1.083       .  S
C568       Br574   1.919       .  S
C575        C580   1.406       .  A
C576        C902   1.416       .  A
C576        C577   1.397       .  A
C576       Br592   1.923       .  S
C577        C905   1.400       .  A
C577        H581   1.084       .  S
C578        C582   1.474       .  S
C578        C579   1.405       .  A
C579        C580   1.397       .  A
C579       Br591   1.918       .  S
C580        H583   1.084       .  S
C582        C584   1.400       .  A
C584        C585   1.396       .  A
C584        H589   1.084       .  S
C585        C586   1.415       .  A
C585       Br593   1.923       .  S
C587        C913   1.405       .  A
C587        C588   1.398       .  A
C587        H590   1.084       .  S
C588        C909   1.406       .  A
C588       Br594   1.918       .  S
C595        C596   1.418       .  A
C596        C597   1.399       .  A
C596       Br612   1.922       .  S
C597        H601   1.084       .  S
C598        C602   1.477       .  S
C598        C924   1.399       .  A
C598        C599   1.406       .  A
C599        C600   1.399       .  A
C599       Br611   1.918       .  S
C600        C922   1.407       .  A
C600        H603   1.083       .  S
C602        C604   1.401       .  A
C602        C935   1.408       .  A
C604        C605   1.398       .  A
C604        H609   1.084       .  S
C605        C606   1.412       .  A
C605       Br613   1.920       .  S
C606        C934   1.404       .  A
C607        C608   1.400       .  A
C607        H610   1.084       .  S
C608       Br614   1.918       .  S
C615        C620   1.406       .  A
C616        C942   1.414       .  A
C616        C617   1.395       .  A
C616       Br632   1.922       .  S
C617        C945   1.400       .  A
C617        H621   1.084       .  S
C618        C622   1.472       .  S
C618        C619   1.405       .  A
C619        C620   1.398       .  A
C619       Br631   1.918       .  S
C620        H623   1.084       .  S
C622        C624   1.399       .  A
C624        C625   1.396       .  A
C624        H629   1.084       .  S
C625        C626   1.416       .  A
C625       Br633   1.923       .  S
C627        C953   1.407       .  A
C627        C628   1.398       .  A
C627        H630   1.084       .  S
C628        C949   1.404       .  A
C628       Br634   1.918       .  S
C635        C640   1.405       .  A
C636        C962   1.414       .  A
C636        C637   1.400       .  A
C636       Br652   1.921       .  S
C637        C965   1.402       .  A
C637        H641   1.084       .  S
C638        C642   1.477       .  S
C638        C639   1.405       .  A
C639        C640   1.398       .  A
C639       Br651   1.917       .  S
C640        H643   1.084       .  S
C642        C644   1.401       .  A
C644        C645   1.401       .  A
C644        H649   1.083       .  S
C645        C646   1.414       .  A
C645       Br653   1.921       .  S
C647        C973   1.407       .  A
C647        C648   1.398       .  A
C647        H650   1.083       .  S
C648        C969   1.405       .  A
C648       Br654   1.918       .  S
C655        N660   1.357       .  A
C655        C962   1.479       .  S
N656        C657   1.358       .  A
C657        N658   1.358       .  A
C657        C687   1.459       .  S
C659        N660   1.357       .  A
C659        C686   1.459       .  S
C661        N666   1.357       .  A
C661        C942   1.476       .  S
N662        C663   1.355       .  A
C663        C710   1.455       .  S
N664        C665   1.358       .  A
C665        N666   1.357       .  A
C665        C711   1.456       .  S
N667        N668   1.316       .  A
N667        N673   1.316       .  A
N667       Mn696   2.187       .  S
N668        C675   1.348       .  A
N669        N671   1.316       .  A
N669        N670   1.323       .  A
N669       Mn685   2.205   1_545  S
N670        C676   1.353       .  A
N671        N672   1.316       .  A
N671       Mn696   2.188       .  S
N672        C676   1.348       .  A
N673        N674   1.323       .  A
N673       Mn685   2.208   1_545  S
N674        C675   1.353       .  A
C675        C720   1.455       .  S
C676        C722   1.456       .  S
N677        N683   1.316       .  A
N677        N678   1.324       .  A
N677       Mn707   2.213       .  S
N678        C686   1.354       .  A
N679        N680   1.317       .  A
N679        N681   1.315       .  A
N679       Mn685   2.185       .  S
N680        C687   1.348       .  A
N681        N682   1.324       .  A
N681       Mn707   2.213       .  S
N682        C687   1.354       .  A
N683        N684   1.317       .  A
N683       Mn685   2.188       .  S
N684        C686   1.348       .  A
Mn685      Cl709   2.548   1_565  S
N688        N689   1.323       .  A
N688        N694   1.315       .  A
N688       Mn696   2.208       .  S
N689        C697   1.353       .  A
N690        N692   1.315       .  A
N690        N691   1.319       .  A
N690       Mn708   2.192       .  S
N691        C698   1.349       .  A
N692        N693   1.323       .  A
N692       Mn696   2.214       .  S
N693        C698   1.354       .  A
N694        N695   1.316       .  A
N694       Mn708   2.186       .  S
N695        C697   1.348       .  A
Mn696      Cl709   2.544       .  S
C697        C716   1.456       .  S
C698        C714   1.462       .  S
N699        N700   1.316       .  A
N699        N705   1.316       .  A
N699       Mn707   2.190       .  S
N700        C710   1.348       .  A
N701        N702   1.323   1_565  A
N701        N703   1.316       .  A
N701       Mn708   2.207   1_565  S
N702        C711   1.352   1_545  A
N703        N704   1.317       .  A
N703       Mn707   2.189       .  S
N704        C711   1.348       .  A
N705        N706   1.323   1_565  A
N705       Mn708   2.205   1_565  S
N706        C710   1.352   1_545  A
Mn707      Cl709   2.545   1_565  S
Mn708      Cl709   2.548       .  S
C712        N717   1.356       .  A
C712        C922   1.486       .  S
N713        C714   1.360       .  A
C714        N715   1.357       .  A
C716        N717   1.355       .  A
C718        N723   1.356       .  A
C718        C902   1.478       .  S
N719        C720   1.355       .  A
N721        C722   1.358       .  A
C722        N723   1.356       .  A
N724        N725   1.323       .  A
N724        N730   1.315       .  A
N724       Mn753   2.210       .  S
N725        C732   1.353       .  A
N726        N728   1.315       .  A
N726        N727   1.318       .  A
N726       Mn742   2.188   1_655  S
N727        C733   1.349       .  A
N728        N729   1.324       .  A
N728       Mn753   2.215       .  S
N729        C733   1.355       .  A
N730        N731   1.316       .  A
N730       Mn742   2.184   1_655  S
N731        C732   1.348       .  A
C732        C783   1.456       .  S
C733        C785   1.462       .  S
N734        N740   1.316       .  A
N734        N735   1.316       .  A
N734       Mn764   2.192       .  S
N735        C743   1.349       .  A
N736        N737   1.323       .  A
N736        N738   1.316       .  A
N736       Mn742   2.204       .  S
N737        C744   1.352       .  A
N738        N739   1.317       .  A
N738       Mn764   2.192       .  S
N739        C744   1.349       .  A
N740        N741   1.323       .  A
N740       Mn742   2.202       .  S
N741        C743   1.352       .  A
Mn742      Cl766   2.548       .  S
C743        C791   1.455       .  S
C744        C789   1.457       .  S
N745        N746   1.316       .  A
N745        N751   1.316       .  A
N745       Mn753   2.190   1_455  S
N746        C754   1.349       .  A
N747        N749   1.316       .  A
N747        N748   1.323       .  A
N747       Mn765   2.208       .  S
N748        C755   1.353       .  A
N749        N750   1.317       .  A
N749       Mn753   2.189   1_455  S
N750        C755   1.348       .  A
N751        N752   1.323       .  A
N751       Mn765   2.203       .  S
N752        C754   1.352       .  A
Mn753      Cl766   2.545   1_655  S
C754        C779   1.455       .  S
C755        C777   1.457       .  S
N756        N757   1.324       .  A
N756        N762   1.316       .  A
N756       Mn764   2.214       .  S
N757        C767   1.354       .  A
N758        N759   1.318       .  A
N758        N760   1.315       .  A
N758       Mn765   2.189       .  S
N759        C768   1.349       .  A
N760        N761   1.324       .  A
N760       Mn764   2.217       .  S
N761        C768   1.355       .  A
N762        N763   1.316       .  A
N762       Mn765   2.185       .  S
N763        C767   1.348       .  A
Mn764      Cl766   2.545       .  S
Mn765      Cl766   2.548       .  S
C767        C771   1.458       .  S
C768        C773   1.463       .  S
C769        N774   1.360       .  A
C769        C893   1.485       .  S
N770        C771   1.356       .  A
N772        C773   1.358       .  A
C773        N774   1.360       .  A
C775        N780   1.353       .  A
C775        C913   1.476       .  S
N776        C777   1.357   1_655  A
N778        C779   1.358       .  A
C779        N780   1.354   1_455  A
C781        N786   1.361       .  A
C781        C862   1.488       .  S
N782        C783   1.355       .  A
N784        C785   1.357       .  A
C785        N786   1.360       .  A
C787        N792   1.354       .  A
C787        C953   1.479       .  S
N788        C789   1.357       .  A
N790        C791   1.357       .  A
C791        N792   1.354       .  A
N793        N794   1.324       .  A
N793        N799   1.316       .  A
N793       Mn822   2.215       .  S
N794        C801   1.354       .  A
N795        N797   1.316       .  A
N795        N796   1.317       .  A
N795       Mn811   2.188       .  S
N796        C802   1.348       .  A
N797        N798   1.324       .  A
N797       Mn822   2.214       .  S
N798        C802   1.354       .  A
N799        N800   1.317       .  A
N799       Mn811   2.190       .  S
N800        C801   1.348       .  A
C801        C840   1.461       .  S
C802        C842   1.459       .  S
N803        N809   1.316       .  A
N803        N804   1.324       .  A
N803       Mn833   2.215       .  S
N804        C812   1.354       .  A
N805        N806   1.317       .  A
N805        N807   1.316       .  A
N805       Mn811   2.187       .  S
N806        C813   1.348       .  A
N807        N808   1.324       .  A
N807       Mn833   2.219       .  S
N808        C813   1.355       .  A
N809        N810   1.317       .  A
N809       Mn811   2.189       .  S
N810        C812   1.348       .  A
Mn811      Cl835   2.550       .  S
C812        C854   1.461       .  S
C813        C852   1.461       .  S
N814        N815   1.324       .  A
N814        N820   1.316       .  A
N814       Mn822   2.216       .  S
N815        C823   1.354       .  A
N816        N818   1.316       .  A
N816        N817   1.317       .  A
N816       Mn834   2.188       .  S
N817        C824   1.348       .  A
N818        N819   1.324       .  A
N818       Mn822   2.215       .  S
N819        C824   1.354       .  A
N820        N821   1.317       .  A
N820       Mn834   2.186       .  S
N821        C823   1.348       .  A
Mn822      Cl835   2.547       .  S
C823        C848   1.460       .  S
C824        C846   1.460       .  S
N825        N826   1.324       .  A
N825        N831   1.316       .  A
N825       Mn833   2.214       .  S
N826        C836   1.354       .  A
N827        N828   1.317       .  A
N827        N829   1.316       .  A
N827       Mn834   2.187       .  S
N828        C837   1.348       .  A
N829        N830   1.324       .  A
N829       Mn833   2.217       .  S
N830        C837   1.354       .  A
N831        N832   1.317       .  A
N831       Mn834   2.186       .  S
N832        C836   1.348       .  A
Mn833      Cl835   2.547       .  S
Mn834      Cl835   2.550       .  S
C836        C858   1.459       .  S
C837        C860   1.460       .  S
C838        N843   1.356   1_554  A
C838        C933   1.477       .  S
N839        C840   1.359       .  A
N841        C842   1.358   1_554  A
C842        N843   1.356       .  A
C844        N845   1.357       .  A
C844        C882   1.482       .  S
N845        C846   1.357       .  A
C846        N847   1.358       .  A
C848        N849   1.359       .  A
C850        N851   1.357       .  A
C850        C873   1.480       .  S
N851        C852   1.357       .  A
C852        N853   1.358       .  A
C854        N855   1.359       .  A
C856        N857   1.358       .  A
C856        C973   1.482       .  S
N857        C858   1.358       .  A
C858        N859   1.358       .  A
C860        N861   1.357       .  A
C862        C867   1.408       .  A
C863        C864   1.400       .  A
C863       Br879   1.922       .  S
C864        H868   1.084       .  S
C865        C869   1.480       .  S
C865        C866   1.406       .  A
C866        C867   1.399       .  A
C866       Br878   1.918       .  S
C867        H870   1.083       .  S
C869        C871   1.401       .  A
C871        C872   1.399       .  A
C871        H876   1.084       .  S
C872        C873   1.413       .  A
C872       Br880   1.920       .  S
C874        C875   1.401       .  A
C874        H877   1.084       .  S
C875       Br881   1.919       .  S
C882        C883   1.415       .  A
C883        C884   1.399       .  A
C883       Br899   1.921       .  S
C884        C885   1.401       .  A
C884        H888   1.084       .  S
C885        C889   1.479       .  S
C886        C887   1.400       .  A
C886       Br898   1.919       .  S
C887        H890   1.083       .  S
C889        C895   1.407       .  A
C891        C892   1.400       .  A
C891        H896   1.083       .  S
C892       Br900   1.922       .  S
C893        C894   1.407       .  A
C894        C895   1.400       .  A
C894        H897   1.083       .  S
C895       Br901   1.919       .  S
C902        C907   1.406       .  A
C903        C904   1.397       .  A
C903       Br919   1.923       .  S
C904        H908   1.084       .  S
C905        C909   1.474       .  S
C905        C906   1.405       .  A
C906        C907   1.397       .  A
C906       Br918   1.918       .  S
C907        H910   1.084       .  S
C909        C911   1.400       .  A
C911        C912   1.396       .  A
C911        H916   1.084       .  S
C912        C913   1.415       .  A
C912       Br920   1.923       .  S
C914        C915   1.398       .  A
C914        H917   1.084       .  S
C915       Br921   1.918       .  S
C922        C923   1.418       .  A
C923        C924   1.399       .  A
C923       Br939   1.922       .  S
C924        H928   1.084       .  S
C925        C929   1.477       .  S
C925        C926   1.406       .  A
C926        C927   1.399       .  A
C926       Br938   1.918       .  S
C927        H930   1.083       .  S
C929        C931   1.401       .  A
C931        C932   1.398       .  A
C931        H936   1.084       .  S
C932        C933   1.412   1_556  A
C932       Br940   1.920       .  S
C934        C935   1.400       .  A
C934        H937   1.084       .  S
C935       Br941   1.918       .  S
C942        C947   1.406       .  A
C943        C944   1.395       .  A
C943       Br959   1.922       .  S
C944        H948   1.084       .  S
C945        C949   1.472       .  S
C945        C946   1.405       .  A
C946        C947   1.398       .  A
C946       Br958   1.918       .  S
C947        H950   1.084       .  S
C949        C951   1.399       .  A
C951        C952   1.396       .  A
C951        H956   1.084       .  S
C952        C953   1.416       .  A
C952       Br960   1.923       .  S
C954        C955   1.398       .  A
C954        H957   1.084       .  S
C955       Br961   1.918       .  S
C962        C967   1.405       .  A
C963        C964   1.400       .  A
C963       Br979   1.921       .  S
C964        H968   1.084       .  S
C965        C969   1.477       .  S
C965        C966   1.405       .  A
C966        C967   1.398       .  A
C966       Br978   1.917       .  S
C967        H970   1.084       .  S
C969        C971   1.401       .  A
C971        C972   1.401       .  A
C971        H976   1.083       .  S
C972        C973   1.414       .  A
C972       Br980   1.921       .  S
C974        C975   1.398       .  A
C974        H977   1.083       .  S
C975       Br981   1.918       .  S
