geometry optimzed in LAMMPS
_audit_creation_date              2020-12-01 
_audit_creation_method            'lammps2cif' 
_symmetry_space_group_name_H-M    'P1' 
_symmetry_Int_Tables_number       1 
_symmetry_cell_setting            triclinic 
loop_ 
_symmetry_equiv_pos_as_xyz 
  x,y,z 
_cell_length_a                    42.37414347 
_cell_length_b                    42.39288611842691 
_cell_length_c                    42.46435347172464 
_cell_angle_alpha                 88.67672705120486 
_cell_angle_beta                  88.85366157452272 
_cell_angle_gamma                 91.06511842761418 
loop_ 
_atom_site_label 
_atom_site_type_symbol 
_atom_site_fract_x 
_atom_site_fract_y 
_atom_site_fract_z 
_atom_site_charge 
C1          C  0.45742188  0.15268636  0.03414701     0.29800
C2          C  0.00893924  0.14118684  0.49177782     0.29800
C3          C  0.44931595  0.13645846  0.50497891    -0.06400
C4          C  0.47584219  0.18162751  0.02010394    -0.07200
C5          C  0.98225156  0.13721653  0.04724873    -0.07100
C6          C  0.47318795  0.12901791  0.48307702    -0.06400
C7          C  0.00425352  0.17915810  0.49877097    -0.07200
C8          C  0.00588916  0.12889354  0.02532350    -0.07100
C9          C  0.45950127  0.12880058  0.45398259    -0.32400
N10         N  0.42858694  0.13410658  0.45798719     0.14100
C11         C  0.42214895  0.13960670  0.48831374    -0.32500
H12         H  0.39950950  0.14770753  0.49666319     0.16000
C13         C  0.01458597  0.21074648  0.48989782    -0.31400
N14         N  0.49414853  0.22991560  0.00501923     0.12800
C15         C  0.47280315  0.21395581  0.02392719    -0.31400
C16         C  0.03263518  0.12418661  0.04222780    -0.31700
N17         N  0.02651714  0.12964603  0.07276559     0.13300
H18         H  0.05618890  0.12129245  0.03267239     0.15900
C19         C  0.99630438  0.13823253  0.07622349    -0.31700
H20         H  0.98663929  0.14830650  0.09740041     0.15900
H21         H  0.45582475  0.22486347  0.03923286     0.15900
H22         H  0.47119606  0.12646288  0.43129638     0.16000
H23         H  0.03318862  0.21620176  0.47258434     0.15900
C24         C  0.03681917  0.34518177  0.47436331     0.29800
C25         C  0.48626771  0.35664573  0.01604778     0.29800
C26         C  0.50997498  0.36175719  0.46316866    -0.06400
C27         C  0.01808484  0.31638174  0.48785268    -0.07200
C28         C  0.04456965  0.36125825  0.00305701    -0.07100
C29         C  0.48458888  0.36969699  0.98217903    -0.06400
C30         C  0.49102887  0.31870502  0.00935843    -0.07200
C31         C  0.51993834  0.36565777  0.02466643    -0.07100
C32         C  0.45897204  0.37294161  0.46781928    -0.32400
N33         N  0.46526708  0.36678002  0.43744832     0.14100
C34         C  0.49590960  0.35946413  0.43421764    -0.32500
H35         H  0.50612295  0.34932767  0.41330752     0.16000
C36         C  0.48023429  0.28727433  0.01803893    -0.31400
N37         N  0.49740282  0.26415175  0.00251789     0.12800
C38         C  0.02159593  0.28410448  0.48430321    -0.31400
C39         C  0.03507449  0.37262679  0.05325050    -0.31700
N40         N  0.06636789  0.36973219  0.04859773     0.13300
H41         H  0.02377511  0.37564977  0.07601929     0.15900
C42         C  0.07257188  0.36246486  0.01859744    -0.31700
H43         H  0.09570377  0.35586114  0.01022080     0.15900
H44         H  0.03909690  0.27330209  0.46950945     0.15900
H45         H  0.43533335  0.37523356  0.47740387     0.16000
H46         H  0.46123058  0.28199170  0.03495308     0.15900
C47         C  0.13920231  0.01260417  0.49693817     0.29800
C48         C  0.15104594  0.47165150  0.04294024     0.29800
C49         C  0.12264718  0.48013963  0.49376528    -0.06400
C50         C  0.17694339  0.00470192  0.50055217    -0.07200
C51         C  0.12676449  0.02196081  0.03179791    -0.07100
C52         C  0.13116851  0.45805333  0.51740679    -0.06400
C53         C  0.17971487  0.48571357  0.02458884    -0.07200
C54         C  0.13424861  0.00005977  0.05567933    -0.07100
C55         C  0.13424668  0.42951242  0.50260776    -0.32400
N56         N  0.12675509  0.43342849  0.47212362     0.14100
C57         C  0.11942537  0.46362890  0.46669179    -0.32500
H58         H  0.11683429  0.47354164  0.44326086     0.16000
C59         C  0.21191301  0.48139672  0.02774894    -0.31400
N60         N  0.22805962  0.49974476  0.00619362     0.12800
C61         C  0.20828131  0.01262070  0.48914748    -0.31400
C62         C  0.13615251  0.01641123  0.08298713    -0.31700
N63         N  0.12981654  0.04662360  0.07653039     0.13300
H64         H  0.14400952  0.00810103  0.10571524     0.15900
C65         C  0.12524949  0.05088771  0.04555812    -0.31700
H66         H  0.12251128  0.07365131  0.03398756     0.15900
H67         H  0.21359315  0.02973665  0.47028169     0.15900
H68         H  0.14518262  0.40863339  0.51218072     0.16000
H69         H  0.22260391  0.46592224  0.04476760     0.15900
C70         C  0.35492729  0.48449225  0.01198998     0.29800
C71         C  0.34221032  0.02925696  0.46669219     0.29800
C72         C  0.36333407  0.47565430  0.97832118    -0.06400
C73         C  0.31688127  0.49198983  0.00806206    -0.07200
C74         C  0.36722808  0.01662085  0.01872223    -0.07100
C75         C  0.35763140  0.49701633  0.45570999    -0.06400
C76         C  0.31353934  0.01471982  0.48488609    -0.07200
C77         C  0.35943805  0.03937540  0.99525431    -0.07100
C78         C  0.35731581  0.48100637  0.42803704    -0.32400
N79         N  0.36407177  0.45082487  0.43416783     0.14100
C80         C  0.36746873  0.44631474  0.46537165    -0.32500
H81         H  0.37004820  0.42346156  0.47679617     0.16000
C82         C  0.28127043  0.01799675  0.48140833    -0.31400
N83         N  0.26197456  0.99832028  0.00393753     0.12800
C84         C  0.28526811  0.48477080  0.01958232    -0.31400
C85         C  0.35698320  0.06764284  0.01029278    -0.31700
N86         N  0.36355167  0.06295943  0.04088137     0.13300
H87         H  0.34729390  0.08914607  0.00065007     0.15900
C88         C  0.36984989  0.03247452  0.04624843    -0.31700
H89         H  0.37164996  0.02208093  0.06958820     0.15900
H90         H  0.27974141  0.46838213  0.03901454     0.15900
H91         H  0.34994382  0.48940617  0.40516797     0.16000
H92         H  0.27027527  0.03325815  0.46439452     0.15900
C93         C  0.48328701  0.48758479  0.14308843     0.29800
C94         C  0.02666701  0.03801026  0.16242786     0.29800
C95         C  0.47351573  0.02031689  0.13828570    -0.06400
C96         C  0.49034828  0.49163090  0.18119020    -0.07200
C97         C  0.51694721  0.48636836  0.12948822    -0.07100
C98         C  0.49554688  0.04420867  0.14477526    -0.06400
C99         C  0.01240433  0.01933893  0.19084769    -0.07200
C100        C  0.03717636  0.51288551  0.13972466    -0.07100
C101        C  0.48025998  0.07228231  0.14274930    -0.32400
N102        N  0.45011469  0.06624934  0.13600328     0.14100
C103        C  0.44503070  0.03487983  0.13440305    -0.32500
H104        H  0.42201326  0.02373821  0.13234501     0.16000
C105        C  0.01660088  0.02229138  0.22294845    -0.31400
N106        N  0.49861589  0.99764577  0.23920240     0.12800
C107        C  0.48202571  0.48106249  0.21289218    -0.31400
C108        C  0.06595482  0.49852729  0.14195573    -0.31700
N109        N  0.06221867  0.46809484  0.13445058     0.13300
H110        H  0.08709840  0.50834333  0.15206022     0.15900
C111        C  0.03179699  0.46220963  0.12807330    -0.31700
H112        H  0.02205604  0.43870734  0.12551234     0.15900
H113        H  0.46489032  0.46232609  0.21852408     0.15900
H114        H  0.48877513  0.09546619  0.14886672     0.16000
H115        H  0.03205229  0.03925541  0.23361118     0.15900
C116        C  0.01340157  0.00916885  0.36527951     0.29800
C117        C  0.46779766  0.45979153  0.34747779     0.29800
C118        C  0.47760016  0.00892707  0.37860209    -0.06400
C119        C  0.00518942  0.00462245  0.32761282    -0.07200
C120        C  0.01633748  0.47598161  0.37178794    -0.07100
C121        C  0.45500288  0.98553338  0.37057701    -0.06400
C122        C  0.48204954  0.47757565  0.31850037    -0.07200
C123        C  0.99483605  0.45205833  0.36441163    -0.07100
C124        C  0.42645141  0.00008230  0.36927435    -0.32400
N125        N  0.43082346  0.03031651  0.37711719     0.14100
C126        C  0.46137738  0.03596831  0.38283946    -0.32500
H127        H  0.47143996  0.05936496  0.38522533     0.16000
C128        C  0.47772382  0.47409406  0.28640002    -0.31400
N129        N  0.49626583  0.49529266  0.26999685     0.12800
C130        C  0.01283633  0.01508622  0.29581547    -0.31400
C131        C  0.01171265  0.42457071  0.36360054    -0.31700
N132        N  0.04194491  0.43116779  0.37013402     0.13300
H133        H  0.00379377  0.40153158  0.35636297     0.15900
C134        C  0.04557890  0.46238818  0.37385292    -0.31700
H135        H  0.06816226  0.47428926  0.37638258     0.15900
H136        H  0.02969354  0.03391860  0.28983970     0.15900
H137        H  0.40503992  0.99068666  0.35931611     0.16000
H138        H  0.46220594  0.45706612  0.27596145     0.15900
O139        O  0.33912146  0.34983895  0.37616776    -0.85600
O140        O  0.39344672  0.31951353  0.38945176    -0.82600
C141        C  0.39733599  0.30728843  0.36296740     0.97900
O142        O  0.40851532  0.32352663  0.33989526    -0.82600
O143        O  0.41894608  0.37784278  0.30287364    -0.85300
C144        C  0.39327232  0.38518717  0.29021424     1.02400
O145        O  0.36976319  0.39268572  0.30649113    -0.78000
O146        O  0.33110094  0.39808361  0.35850767    -0.78200
C147        C  0.32054072  0.37079900  0.36713639     1.02400
O148        O  0.35782301  0.40042385  0.41514219    -0.85500
O149        O  0.41456427  0.37419721  0.42110484    -0.82600
C150        C  0.44152178  0.36425667  0.41446635     0.97900
O151        O  0.44711247  0.35167401  0.38822870    -0.82600
O152        O  0.45087729  0.40563495  0.35380022    -0.85200
C153        C  0.44381774  0.43250094  0.34335213     1.02400
O154        O  0.41665243  0.43640978  0.33174331    -0.78100
O155        O  0.38032703  0.43696251  0.38479298    -0.78200
C156        C  0.36767739  0.42832392  0.41052458     1.02400
Cr157      Cr  0.37743867  0.36215665  0.39788946     1.93700
Cr158      Cr  0.42887524  0.36544431  0.34699152     1.93200
Cr159      Cr  0.37560387  0.41354440  0.34638781     1.39100
O160        O  0.39376116  0.38024274  0.36335875    -1.23300
O161        O  0.38734346  0.10050013  0.32794157    -0.85600
O162        O  0.37491710  0.15673654  0.35444801    -0.82600
C163        C  0.36511135  0.17592652  0.37433193     0.97900
O164        O  0.35454781  0.16635341  0.40136881    -0.82600
O165        O  0.30262789  0.12805846  0.39632147    -0.85300
C166        C  0.28628847  0.10448399  0.38953357     1.02400
O167        O  0.29867289  0.07859398  0.38315712    -0.78000
O168        O  0.33685314  0.08941190  0.32972794    -0.78200
C169        C  0.36134013  0.09838337  0.31431084     1.02400
O170        O  0.41578609  0.08110306  0.38440372    -0.85500
O171        O  0.41102780  0.13954411  0.40711207    -0.82600
C172        C  0.40535532  0.13084355  0.43512499     0.97900
O173        O  0.37936129  0.11856127  0.44329859    -0.82600
O174        O  0.32721006  0.08131235  0.44257644    -0.85200
C175        C  0.33817644  0.05362498  0.43906699     1.02400
O176        O  0.34827021  0.04612783  0.41224618    -0.78100
O177        O  0.38352652  0.04986080  0.35941870    -0.78200
C178        C  0.40889295  0.05454255  0.37384898     1.02400
Cr179      Cr  0.39476924  0.11837623  0.36951487     1.93700
Cr180      Cr  0.34177738  0.12243450  0.41861076     1.93200
Cr181      Cr  0.34257921  0.06850551  0.37181132     1.39100
O182        O  0.35930082  0.10338722  0.38661890    -1.23300
O183        O  0.06555672  0.14638257  0.41641305    -0.85600
O184        O  0.07539745  0.11141873  0.36612564    -0.82600
C185        C  0.08600760  0.09037418  0.34891313     0.97900
O186        O  0.08883294  0.06293928  0.35976725    -0.82600
O187        O  0.13841277  0.07307782  0.39427966    -0.85300
C188        C  0.15637718  0.08387503  0.41432485     1.02400
O189        O  0.14661561  0.08755383  0.44212355    -0.78000
O190        O  0.11312817  0.13864868  0.43246230    -0.78200
C191        C  0.09322048  0.15639554  0.42065417     1.02400
O192        O  0.02411742  0.10515564  0.44599770    -0.85500
O193        O  0.02989761  0.06333688  0.38532467    -0.82600
C194        C  0.03582922  0.03355217  0.38443413     0.97900
O195        O  0.05845866  0.02372918  0.40203290    -0.82600
O196        O  0.11932574  0.02879494  0.44302578    -0.85200
C197        C  0.12030868  0.03509078  0.47252645     1.02400
O198        O  0.10325836  0.05825101  0.48192150    -0.78100
O199        O  0.06311164  0.11996173  0.47611442    -0.78200
C200        C  0.03357093  0.12185186  0.46938643     1.02400
Cr201      Cr  0.05100091  0.10345417  0.40544378     1.93700
Cr202      Cr  0.09938344  0.04955952  0.40297977     1.93200
Cr203      Cr  0.10335020  0.09917840  0.45577244     1.39100
O204        O  0.08292165  0.08255259  0.42300476    -1.23300
O205        O  0.17585701  0.38859411  0.39790097    -0.85600
O206        O  0.14482215  0.37619727  0.34412777    -0.82600
C207        C  0.12400391  0.36558173  0.32633352     0.97900
O208        O  0.09722662  0.35646593  0.33775694    -0.82600
O209        O  0.10344446  0.30413163  0.37632143    -0.85300
C210        C  0.11186306  0.28814546  0.39978188     1.02400
O211        O  0.11953151  0.30109518  0.42499186    -0.78000
O212        O  0.17281318  0.33871011  0.41198452    -0.78200
C213        C  0.18855560  0.36199627  0.40042255     1.02400
O214        O  0.12030755  0.41888581  0.42083797    -0.85500
O215        O  0.09332286  0.41375902  0.36430346    -0.82600
C216        C  0.06541531  0.40816687  0.37383226     0.97900
O217        O  0.05777970  0.38223448  0.38668463    -0.82600
O218        O  0.06027498  0.32958958  0.42350945    -0.85200
C219        C  0.06440477  0.34103966  0.45061905     1.02400
O220        O  0.09142737  0.35139689  0.45754014    -0.78100
O221        O  0.14520203  0.38632563  0.45186369    -0.78200
C222        C  0.13077588  0.41179419  0.44746537     1.02400
Cr223      Cr  0.13248366  0.39680236  0.38307385     1.93700
Cr224      Cr  0.08221053  0.34418565  0.38212288     1.93200
Cr225      Cr  0.13143477  0.34524122  0.43411086     1.39100
O226        O  0.11547235  0.36165909  0.39949671    -1.23300
O227        O  0.12163001  0.34126252  0.15015196    -0.85600
O228        O  0.10862497  0.39543026  0.18090936    -0.83600
C229        C  0.13503617  0.39685682  0.19397301     0.97900
O230        O  0.15848837  0.40854533  0.17865220    -0.82600
O231        O  0.19605167  0.42171427  0.12567021    -0.85300
C232        C  0.20894025  0.39590592  0.11956435     1.02400
O233        O  0.19275940  0.37278848  0.11086760    -0.78000
O234        O  0.14052247  0.33470495  0.10239967    -0.78200
C235        C  0.13093922  0.32320948  0.12895271     1.02400
O236        O  0.08428992  0.36184919  0.09904774    -0.85500
O237        O  0.07821290  0.41768935  0.12604544    -0.82600
C238        C  0.08475913  0.44407706  0.13712293     0.97900
O239        O  0.11047335  0.44879494  0.15102586    -0.82600
O240        O  0.14531093  0.45437763  0.09743982    -0.85200
C241        C  0.15584498  0.44770673  0.07048049     1.02400
O242        O  0.16837791  0.42091963  0.06669127    -0.78100
O243        O  0.11577625  0.38478539  0.06375468    -0.78200
C244        C  0.08966501  0.37242147  0.07153798     1.02400
Cr245      Cr  0.10065899  0.38017443  0.13807878     1.93700
Cr246      Cr  0.15181642  0.43104917  0.13739161     1.93200
Cr247      Cr  0.15346731  0.37931931  0.08833876     1.39100
O248        O  0.13563140  0.39663192  0.12130000    -1.23300
O249        O  0.38203976  0.35922447  0.07565181    -0.85600
O250        O  0.34853284  0.41030572  0.06776530    -0.82600
C251        C  0.33941332  0.41526435  0.09563554     0.97900
O252        O  0.35785921  0.42628992  0.11514113    -0.82600
O253        O  0.40844981  0.43438614  0.14878380    -0.85300
C254        C  0.41083480  0.40636432  0.15867390     1.02400
O255        O  0.42004050  0.38559842  0.14055610    -0.78000
O256        O  0.42991228  0.35072390  0.09055806    -0.78200
C257        C  0.40212790  0.34101979  0.08627919     1.02400
O258        O  0.43183534  0.37797181  0.03164311    -0.85500
O259        O  0.39157179  0.43945805  0.02672814    -0.82600
C260        C  0.37459317  0.46250711  0.03631735     0.97900
O261        O  0.37660281  0.46920393  0.06569034    -0.82600
O262        O  0.43885679  0.47336799  0.10525508    -0.85200
C263        C  0.46110836  0.46334758  0.12321402     1.02400
O264        O  0.46645873  0.43343476  0.12252256    -0.78100
O265        O  0.47113930  0.39287198  0.06133725    -0.78200
C266        C  0.46151023  0.37611748  0.03813712     1.02400
Cr267      Cr  0.39164049  0.39868171  0.05269493     1.93700
Cr268      Cr  0.39732870  0.44844597  0.10547463     1.93200
Cr269      Cr  0.44467663  0.39377704  0.10187491     1.39100
O270        O  0.41272866  0.41509347  0.08506060    -1.23300
O271        O  0.09677711  0.17734415  0.11641311    -0.85600
O272        O  0.15332029  0.14986295  0.12916559    -0.82600
C273        C  0.17233282  0.12982865  0.13948214     0.97900
O274        O  0.16253504  0.10275443  0.14975635    -0.82600
O275        O  0.12524103  0.10809349  0.20195738    -0.85300
C276        C  0.10258439  0.11706690  0.21854795     1.02400
O277        O  0.07651292  0.12410147  0.20675261    -0.78000
O278        O  0.08670752  0.17611893  0.16676701    -0.78200
C279        C  0.09635323  0.19115924  0.14227724     1.02400
O280        O  0.07689590  0.12052154  0.08889522    -0.85500
O281        O  0.13544579  0.09734153  0.09393424    -0.82600
C282        C  0.12640197  0.06945006  0.09960547     0.97900
O283        O  0.11403595  0.06136995  0.12554096    -0.82600
O284        O  0.07813566  0.06222150  0.17809645    -0.85200
C285        C  0.05048503  0.06592181  0.16734107     1.02400
O286        O  0.04260698  0.09317351  0.15842192    -0.78100
O287        O  0.04555708  0.14533757  0.12131312    -0.78200
C288        C  0.05036843  0.13151441  0.09555621     1.02400
Cr289      Cr  0.11449521  0.13521116  0.10971478     1.93700
Cr290      Cr  0.11875645  0.08600797  0.16291842     1.93200
Cr291      Cr  0.06524333  0.13394547  0.16251655     1.39100
O292        O  0.09971785  0.11839123  0.14550158    -1.23300
O293        O  0.35128647  0.12543838  0.16720794    -0.85600
O294        O  0.31713695  0.11123582  0.11590475    -0.82600
C295        C  0.30494472  0.13765194  0.11062301     0.97900
O296        O  0.32105332  0.15989214  0.09743102    -0.82600
O297        O  0.37477631  0.19635009  0.08360334    -0.85300
C298        C  0.38161331  0.20986167  0.10879546     1.02400
O299        O  0.39049728  0.19425536  0.13236792    -0.78000
O300        O  0.40016744  0.14250499  0.17108272    -0.78200
C301        C  0.37403260  0.13366536  0.18380451     1.02400
O302        O  0.40043833  0.08561804  0.14548536    -0.85500
O303        O  0.37024467  0.07810919  0.09189449    -0.82600
C304        C  0.36027894  0.08502380  0.06508240     0.97900
O305        O  0.34734469  0.11104369  0.05969549    -0.82600
O306        O  0.40271149  0.14464150  0.05224537    -0.85200
C307        C  0.42956707  0.15645047  0.05812632     1.02400
O308        O  0.43327306  0.16932093  0.08453298    -0.78100
O309        O  0.43567735  0.11590736  0.12060059    -0.78200
C310        C  0.42757167  0.09003375  0.13351281     1.02400
Cr311      Cr  0.36084517  0.10266503  0.12878759     1.93700
Cr312      Cr  0.36238676  0.15216150  0.07558800     1.93200
Cr313      Cr  0.41230251  0.15446680  0.12622580     1.39100
O314        O  0.37829086  0.13672263  0.11041326    -1.23300
C315        C  0.21702464  0.14968958  0.10582914    -0.09400
C316        C  0.20641803  0.13654400  0.13499218     0.06800
C317        C  0.22866789  0.12724967  0.15729534    -0.03100
C318        C  0.26091932  0.12955484  0.14950963    -0.07600
C319        C  0.27143273  0.14108252  0.11963998     0.06000
C320        C  0.24920613  0.15162332  0.09789577    -0.02600
Br321      Br  0.26128744  0.16451380  0.05566886    -0.02300
H322        H  0.20011592  0.15652535  0.08824030     0.09900
H323        H  0.27786970  0.12144942  0.16652694     0.07900
Br324      Br  0.21602955  0.11153152  0.19850992    -0.02700
C325        C  0.41013487  0.29310915  0.11805666    -0.09400
C326        C  0.39333032  0.30830092  0.09427333     0.06800
C327        C  0.36929183  0.29172039  0.07869045    -0.03100
C328        C  0.36367047  0.26003840  0.08637069    -0.07600
C329        C  0.38218269  0.24429292  0.10860318     0.06000
C330        C  0.40497495  0.26136068  0.12531375    -0.02600
Br331      Br  0.43286619  0.24271665  0.15534150    -0.02300
H332        H  0.42847001  0.30570553  0.13024243     0.09900
H333        H  0.34616290  0.24709387  0.07329164     0.07900
Br334      Br  0.34604791  0.30911452  0.04412888    -0.02700
C335        C  0.12782841  0.23463171  0.11696366    -0.09400
C336        C  0.10769081  0.22439581  0.14212127     0.06800
C337        C  0.09825957  0.24639364  0.16453459    -0.03100
C338        C  0.10797925  0.27799157  0.16071613    -0.07600
C339        C  0.12651947  0.28864211  0.13439723     0.06000
C340        C  0.13690517  0.26623453  0.11262790    -0.02600
Br341      Br  0.16246479  0.27650576  0.07574544    -0.02300
H342        H  0.13599616  0.21798324  0.09975741     0.09900
H343        H  0.09941823  0.29460304  0.17775023     0.07900
Br344      Br  0.06970582  0.23586307  0.19893266    -0.02700
C345        C  0.25966633  0.41811364  0.13584567    -0.09400
C346        C  0.24340683  0.39471175  0.11945225     0.06800
C347        C  0.26023638  0.37526694  0.09871612    -0.03100
C348        C  0.29182150  0.38216326  0.09192375    -0.07600
C349        C  0.30706718  0.40773259  0.10570878     0.06000
C350        C  0.29125657  0.42498441  0.12906773    -0.02600
Br351      Br  0.30976112  0.46032247  0.15019861    -0.02300
H352        H  0.24718344  0.43270764  0.15241959     0.09900
H353        H  0.30434794  0.36793497  0.07506399     0.07900
Br354      Br  0.24172724  0.34084537  0.07641469    -0.02700
C355        C  0.15756177  0.38345300  0.27980853    -0.09400
C356        C  0.12998221  0.36764145  0.29172455     0.06800
C357        C  0.10739347  0.35736284  0.27014681    -0.03100
C358        C  0.11061050  0.36642715  0.23855341    -0.07600
C359        C  0.13644556  0.38498408  0.22707794     0.06000
C360        C  0.16125489  0.39160658  0.24769311    -0.02600
Br361      Br  0.20032843  0.41168909  0.23396416    -0.02300
H362        H  0.17602558  0.39046654  0.29562503     0.09900
H363        H  0.09217751  0.35906993  0.22284201     0.07900
Br364      Br  0.07137595  0.33091809  0.28140795    -0.02700
C365        C  0.10819836  0.08194467  0.26316088    -0.09400
C366        C  0.10447620  0.11287717  0.25222266     0.06800
C367        C  0.09757647  0.13689580  0.27315449    -0.03100
C368        C  0.09297336  0.12925763  0.30496299    -0.07600
C369        C  0.09423160  0.09766187  0.31583968     0.06000
C370        C  0.10258614  0.07385362  0.29452867    -0.02600
Br371      Br  0.10415853  0.02939053  0.30464399    -0.02300
H372        H  0.11313435  0.06341364  0.24666336     0.09900
H373        H  0.08735201  0.14797903  0.32096572     0.07900
Br374      Br  0.09404089  0.17996975  0.25934824    -0.02700
C375        C  0.07976219  0.20593984  0.39382540    -0.09400
C376        C  0.10145757  0.18926229  0.41202316     0.06800
C377        C  0.12893578  0.20501113  0.42248797    -0.03100
C378        C  0.13316001  0.23708160  0.41565070    -0.07600
C379        C  0.11021481  0.25391519  0.39943432     0.06000
C380        C  0.08334113  0.23812635  0.38831445    -0.02600
Br381      Br  0.04793793  0.25940231  0.37058710    -0.02300
H382        H  0.05864534  0.19434742  0.38542385     0.09900
H383        H  0.15359500  0.24939747  0.42469616     0.07900
Br384      Br  0.16027607  0.18596619  0.44857272    -0.02700
C385        C  0.34237424  0.13227395  0.23367392    -0.09400
C386        C  0.37139766  0.12767903  0.21786738     0.06800
C387        C  0.39576364  0.11217630  0.23371836    -0.03100
C388        C  0.39052097  0.10099663  0.26427417    -0.07600
C389        C  0.36187970  0.10590734  0.28042455     0.06000
C390        C  0.33763599  0.12202145  0.26505109    -0.02600
Br391      Br  0.29880490  0.13232911  0.28610279    -0.02300
H392        H  0.32339387  0.14390903  0.22156228     0.09900
H393        H  0.40949868  0.08873828  0.27580147     0.07900
Br394      Br  0.43638383  0.10346276  0.21515930    -0.02700
C395        C  0.23477665  0.08862584  0.37101199    -0.09400
C396        C  0.25242840  0.10551526  0.39251571     0.06800
C397        C  0.23810067  0.11720974  0.41990778    -0.03100
C398        C  0.20634374  0.11084681  0.42580003    -0.07600
C399        C  0.18890783  0.09214697  0.40532757     0.06000
C400        C  0.20324145  0.08144222  0.37722295    -0.02600
Br401      Br  0.18319087  0.05430726  0.34755006    -0.02300
H402        H  0.24616723  0.07920710  0.35024627     0.09900
H403        H  0.19568752  0.11931622  0.44733314     0.07900
Br404      Br  0.26126393  0.13755582  0.45253378    -0.02700
C405        C  0.41010021  0.36629031  0.23880728    -0.09400
C406        C  0.39219375  0.38747653  0.25603676     0.06800
C407        C  0.37791858  0.41313990  0.24056397    -0.03100
C408        C  0.38360618  0.41820469  0.20850614    -0.07600
C409        C  0.40325366  0.39812116  0.19157610     0.06000
C410        C  0.41577852  0.37125911  0.20679070    -0.02600
Br411      Br  0.44324751  0.34177571  0.18686693    -0.02300
H412        H  0.42101597  0.34650782  0.25067576     0.09900
H413        H  0.37334255  0.43853776  0.19697903     0.07900
Br414      Br  0.35324864  0.44405384  0.26190796    -0.02700
C415        C  0.23153697  0.37633453  0.36196881    -0.09400
C416        C  0.22177586  0.35947163  0.38958140     0.06800
C417        C  0.24440713  0.34318257  0.40705659    -0.03100
C418        C  0.27627159  0.34577336  0.39799892    -0.07600
C419        C  0.28628813  0.36446660  0.37166514     0.06000
C420        C  0.26343431  0.37873284  0.35279260    -0.02600
Br421      Br  0.27437938  0.40086884  0.31403155    -0.02300
H422        H  0.21425717  0.38824389  0.34772561     0.09900
H423        H  0.29350220  0.33449659  0.41280063     0.07900
Br424      Br  0.23388777  0.31996440  0.44526118    -0.02700
C425        C  0.40224909  0.21893079  0.35807324    -0.09400
C426        C  0.37133790  0.20967503  0.36754382     0.06800
C427        C  0.34875736  0.23283968  0.37294845    -0.03100
C428        C  0.35726455  0.26470463  0.36868575    -0.07600
C429        C  0.38843116  0.27392122  0.36035058     0.06000
C430        C  0.41119060  0.25079939  0.35566951    -0.02600
Br431      Br  0.45535553  0.26147728  0.35197043    -0.02300
H432        H  0.42017781  0.20128173  0.35506962     0.09900
H433        H  0.33985213  0.28246446  0.37347952     0.07900
Br434      Br  0.30659773  0.22218844  0.38718797    -0.02700
C435        C  0.45951396  0.15330858  0.53463679     0.29800
C436        C  0.00367891  0.14208157  0.99151383     0.29800
C437        C  0.44750559  0.13566395  0.00477762    -0.06400
C438        C  0.47814111  0.18185545  0.52073580    -0.07200
C439        C  0.98678106  0.13606609  0.54747805    -0.07100
C440        C  0.47120997  0.12863123  0.98253815    -0.06400
C441        C  0.99910731  0.17998222  0.99805415    -0.07200
C442        C  0.01064027  0.12772321  0.52557452    -0.07100
C443        C  0.45678075  0.12738097  0.95388309    -0.32400
N444        N  0.42578284  0.13168254  0.95883517     0.14100
C445        C  0.41985648  0.13742118  0.98907397    -0.32500
H446        H  0.39722063  0.14522870  0.99773424     0.16000
C447        C  0.00939200  0.21132172  0.98859788    -0.31400
N448        N  0.49617029  0.23000656  0.50579906     0.12800
C449        C  0.47486794  0.21401695  0.52455779    -0.31400
C450        C  0.03713066  0.12265235  0.54262597    -0.31700
N451        N  0.03079262  0.12830069  0.57309495     0.13300
H452        H  0.06070306  0.11961089  0.53315657     0.15900
C453        C  0.00061838  0.13702361  0.57644135    -0.31700
H454        H  0.99088688  0.14739044  0.59744977     0.15900
H455        H  0.45774779  0.22480588  0.53978196     0.15900
H456        H  0.46789570  0.12524950  0.93089447     0.16000
H457        H  0.02788405  0.21648413  0.97109290     0.15900
C458        C  0.03444130  0.34499430  0.97302272     0.29800
C459        C  0.48780729  0.35650060  0.51874283     0.29800
C460        C  0.50859397  0.36127255  0.96038656    -0.06400
C461        C  0.01472503  0.31663472  0.98619697    -0.07200
C462        C  0.04646769  0.36206373  0.50421257    -0.07100
C463        C  0.48585701  0.36973453  0.48488919    -0.06400
C464        C  0.49266890  0.31861036  0.51174068    -0.07200
C465        C  0.52140298  0.36559844  0.52743242    -0.07100
C466        C  0.45762482  0.37256639  0.96536910    -0.32400
N467        N  0.46354123  0.36540518  0.93524994     0.14100
C468        C  0.49416512  0.35824622  0.93169296    -0.32500
H469        H  0.50414215  0.34776028  0.91084409     0.16000
C470        C  0.48191354  0.28699716  0.51968117    -0.31400
N471        N  0.49923493  0.26423585  0.50376165     0.12800
C472        C  0.01715402  0.28431279  0.98229130    -0.31400
C473        C  0.03588968  0.37110275  0.55485528    -0.31700
N474        N  0.06710001  0.36733854  0.55089721     0.13300
H475        H  0.02406982  0.37358796  0.57745836     0.15900
C476        C  0.07384146  0.36113872  0.52074206    -0.31700
H477        H  0.09689661  0.35402720  0.51255828     0.15900
H478        H  0.03420530  0.27312858  0.96727395     0.15900
H479        H  0.43408559  0.37507204  0.97510203     0.16000
H480        H  0.46280020  0.28134015  0.53636050     0.15900
C481        C  0.13497987  0.01358866  0.99806371     0.29800
C482        C  0.15154420  0.47098321  0.54350078     0.29800
C483        C  0.12209701  0.48153155  0.99325904    -0.06400
C484        C  0.17302978  0.00579703  0.00194110    -0.07200
C485        C  0.13113742  0.02136942  0.53077340    -0.07100
C486        C  0.13039776  0.45926435  0.01684846    -0.06400
C487        C  0.18023334  0.48477787  0.52506604    -0.07200
C488        C  0.13839058  0.99948668  0.55456842    -0.07100
C489        C  0.13205094  0.43050689  0.00244481    -0.32400
N490        N  0.12393714  0.43432393  0.97214312     0.14100
C491        C  0.11785884  0.46490405  0.96636687    -0.32500
H492        H  0.11515519  0.47490065  0.94294579     0.16000
C493        C  0.21237536  0.48007334  0.52805070    -0.31400
N494        N  0.22856083  0.49795092  0.50616724     0.12800
C495        C  0.20468588  0.01339956  0.99068985    -0.31400
C496        C  0.13844513  0.01529037  0.58236171    -0.31700
N497        N  0.13174799  0.04552459  0.57623382     0.13300
H498        H  0.14542439  0.00671830  0.60529686     0.15900
C499        C  0.12845899  0.05013482  0.54498394    -0.31700
H500        H  0.12573119  0.07298026  0.53357946     0.15900
H501        H  0.21021803  0.03025405  0.97164806     0.15900
H502        H  0.14250154  0.40937875  0.01202429     0.16000
H503        H  0.22299626  0.46461808  0.54513249     0.15900
C504        C  0.35545133  0.48327813  0.51324954     0.29800
C505        C  0.33942707  0.02756729  0.96837922     0.29800
C506        C  0.36484461  0.47513435  0.47957315    -0.06400
C507        C  0.31735793  0.49009704  0.50848868    -0.07200
C508        C  0.37078413  0.01917093  0.51654528    -0.07100
C509        C  0.35607299  0.49725202  0.95439820    -0.06400
C510        C  0.31052573  0.01272218  0.98601119    -0.07200
C511        C  0.36255706  0.04151439  0.49293658    -0.07100
C512        C  0.35751812  0.48157022  0.92657746    -0.32400
N513        N  0.36512258  0.45163437  0.93296080     0.14100
C514        C  0.36753360  0.44704482  0.96425619    -0.32500
H515        H  0.37057168  0.42425258  0.97565616     0.16000
C516        C  0.27827489  0.01706550  0.98278067    -0.31400
N517        N  0.26550009  0.99874707  0.50251199     0.12800
C518        C  0.28566022  0.48258777  0.51956978    -0.31400
C519        C  0.36001058  0.07006514  0.50749622    -0.31700
N520        N  0.36709955  0.06589249  0.53796423     0.13300
H521        H  0.34988395  0.09129897  0.49773704     0.15900
C522        C  0.37374049  0.03550577  0.54365121    -0.31700
H523        H  0.37602663  0.02540127  0.56706269     0.15900
H524        H  0.28001893  0.46615057  0.53893578     0.15900
H525        H  0.35085321  0.48983625  0.90342810     0.16000
H526        H  0.26766286  0.03295760  0.96606947     0.15900
C527        C  0.48380401  0.48892863  0.64515331     0.29800
C528        C  0.02895207  0.03798695  0.66299848     0.29800
C529        C  0.47720799  0.02244642  0.63505317    -0.06400
C530        C  0.49088998  0.49323406  0.68308763    -0.07200
C531        C  0.51759809  0.48700735  0.63188091    -0.07100
C532        C  0.49917668  0.04631145  0.64224125    -0.06400
C533        C  0.01329822  0.02032260  0.69143005    -0.07200
C534        C  0.03820069  0.51243286  0.63802893    -0.07100
C535        C  0.48310745  0.07398632  0.64244873    -0.32400
N536        N  0.45300941  0.06770149  0.63570461     0.14100
C537        C  0.44848337  0.03660153  0.63230472    -0.32500
H538        H  0.42558519  0.02525358  0.63007317     0.16000
C539        C  0.01602513  0.02392575  0.72370958    -0.31400
N540        N  0.49786472  0.00095394  0.73730412     0.12800
C541        C  0.48230873  0.48258000  0.71457929    -0.31400
C542        C  0.06695101  0.49800867  0.64079897    -0.31700
N543        N  0.06324604  0.46729888  0.63419845     0.13300
H544        H  0.08795180  0.50805853  0.65097902     0.15900
C545        C  0.03293197  0.46136030  0.62748212    -0.31700
H546        H  0.02309784  0.43780444  0.62559809     0.15900
H547        H  0.46504114  0.46389285  0.72001808     0.15900
H548        H  0.49125377  0.09685412  0.64997827     0.16000
H549        H  0.03113515  0.04085743  0.73473410     0.15900
C550        C  0.00773681  0.01072517  0.86595362     0.29800
C551        C  0.46764560  0.45851711  0.84814369     0.29800
C552        C  0.47638084  0.00947540  0.87756167    -0.06400
C553        C  0.00032703  0.00657081  0.82809855    -0.07200
C554        C  0.01981794  0.47881202  0.87022635    -0.07100
C555        C  0.45423811  0.98604263  0.86911077    -0.06400
C556        C  0.48164509  0.47732635  0.81971168    -0.07200
C557        C  0.99806081  0.45471804  0.86343877    -0.07100
C558        C  0.42537462  0.00044195  0.86838615    -0.32400
N559        N  0.42909614  0.03050136  0.87742785     0.14100
C560        C  0.45972805  0.03624477  0.88295459    -0.32500
H561        H  0.46956136  0.05961178  0.88622101     0.16000
C562        C  0.47771609  0.47440197  0.78754094    -0.31400
N563        N  0.49608373  0.49618887  0.77171454     0.12800
C564        C  0.00921578  0.01707132  0.79665085    -0.31400
C565        C  0.01396226  0.42706441  0.86388283    -0.31700
N566        N  0.04411279  0.43346799  0.87021651     0.13300
H567        H  0.00563180  0.40391311  0.85742695     0.15900
C568        C  0.04869396  0.46476806  0.87302458    -0.31700
H569        H  0.07149984  0.47625190  0.87549565     0.15900
H570        H  0.02673484  0.03558897  0.79130742     0.15900
H571        H  0.40410530  0.99110434  0.85812000     0.16000
H572        H  0.46267760  0.45724777  0.77664949     0.15900
O573        O  0.33615965  0.35206884  0.87506753    -0.85600
O574        O  0.38988653  0.31946920  0.88857421    -0.82600
C575        C  0.39126037  0.30672322  0.86215953     0.97900
O576        O  0.40354006  0.32210859  0.83895582    -0.82600
O577        O  0.41684580  0.37598455  0.80208711    -0.85300
C578        C  0.39106497  0.38410933  0.79027190     1.02400
O579        O  0.36829738  0.39265644  0.80687836    -0.78000
O580        O  0.33166919  0.40098004  0.85847802    -0.78200
C581        C  0.31907747  0.37462789  0.86671728     1.02400
O582        O  0.35750047  0.40151957  0.91409755    -0.85500
O583        O  0.41270731  0.37273352  0.91989164    -0.82600
C584        C  0.43936118  0.36220886  0.91298169     0.97900
O585        O  0.44430914  0.34877690  0.88709083    -0.82600
O586        O  0.45093444  0.40317954  0.85282799    -0.85200
C587        C  0.44423166  0.43060051  0.84299582     1.02400
O588        O  0.41752765  0.43474970  0.83069933    -0.78100
O589        O  0.38248601  0.43693589  0.88425935    -0.78200
C590        C  0.36882552  0.42891537  0.90967145     1.02400
Cr591      Cr  0.37521225  0.36237614  0.89693031     1.93700
Cr592      Cr  0.42669010  0.36328011  0.84599562     1.93200
Cr593      Cr  0.37607228  0.41385689  0.84596719     1.39100
O594        O  0.39255036  0.37975816  0.86264329    -1.23300
O595        O  0.38468591  0.10036891  0.83039290    -0.85600
O596        O  0.36923238  0.15628723  0.85734237    -0.82600
C597        C  0.35862405  0.17511438  0.87730345     0.97900
O598        O  0.35004864  0.16495996  0.90480876    -0.82600
O599        O  0.29807292  0.12682323  0.90132260    -0.85300
C600        C  0.28192110  0.10387596  0.89246605     1.02400
O601        O  0.29472543  0.07877782  0.88378287    -0.78000
O602        O  0.33444442  0.09003032  0.83077374    -0.78200
C603        C  0.35927538  0.09913274  0.81585074     1.02400
O604        O  0.41300391  0.08117158  0.88629380    -0.85500
O605        O  0.40623544  0.13985920  0.90932340    -0.82600
C606        C  0.40194205  0.12913190  0.93676422     0.97900
O607        O  0.37643642  0.11608683  0.94518629    -0.82600
O608        O  0.32415317  0.07975590  0.94544154    -0.85200
C609        C  0.33479323  0.05220033  0.94105726     1.02400
O610        O  0.34366281  0.04506308  0.91366919    -0.78100
O611        O  0.38054617  0.04952882  0.86176071    -0.78200
C612        C  0.40637988  0.05451098  0.87549763     1.02400
Cr613      Cr  0.39070913  0.11838058  0.87194711     1.93700
Cr614      Cr  0.33819264  0.12082506  0.92181575     1.93200
Cr615      Cr  0.33900175  0.06829801  0.87321148     1.39100
O616        O  0.35542344  0.10266397  0.88897440    -1.23300
O617        O  0.05977525  0.14800794  0.91640771    -0.85600
O618        O  0.07091950  0.11248360  0.86662536    -0.82600
C619        C  0.08210233  0.09126487  0.84994631     0.97900
O620        O  0.08312170  0.06364778  0.86082527    -0.82600
O621        O  0.13297434  0.07348289  0.89548654    -0.85300
C622        C  0.15087767  0.08455291  0.91550959     1.02400
O623        O  0.14098029  0.08911800  0.94307377    -0.78000
O624        O  0.10710475  0.13989228  0.93288988    -0.78200
C625        C  0.08749641  0.15774905  0.92065105     1.02400
O626        O  0.01856584  0.10637837  0.94582607    -0.85500
O627        O  0.02451641  0.06481958  0.88558072    -0.82600
C628        C  0.03001281  0.03497250  0.88537122     0.97900
O629        O  0.05224916  0.02513323  0.90350364    -0.82600
O630        O  0.11371277  0.02978731  0.94434558    -0.85200
C631        C  0.11540561  0.03623841  0.97378458     1.02400
O632        O  0.09842895  0.05953038  0.98321565    -0.78100
O633        O  0.05744087  0.12088836  0.97634387    -0.78200
C634        C  0.02805241  0.12288573  0.96928966     1.02400
Cr635      Cr  0.04568625  0.10479343  0.90563753     1.93700
Cr636      Cr  0.09358260  0.05043810  0.90420277     1.93200
Cr637      Cr  0.09772348  0.10044655  0.95651619     1.39100
O638        O  0.07732873  0.08372353  0.92380232    -1.23300
O639        O  0.17309612  0.39073253  0.90223676    -0.85600
O640        O  0.14564976  0.37634859  0.84587169    -0.82600
C641        C  0.12533255  0.36635688  0.82703343     0.97900
O642        O  0.09768702  0.35817144  0.83706958    -0.82600
O643        O  0.10065899  0.30489235  0.87406085    -0.85300
C644        C  0.11038759  0.28834500  0.89652661     1.02400
O645        O  0.11952988  0.30067042  0.92166291    -0.78000
O646        O  0.17195845  0.34040230  0.91180673    -0.78200
C647        C  0.18715505  0.36498568  0.90275632     1.02400
O648        O  0.11699348  0.41908421  0.92117422    -0.85500
O649        O  0.09398538  0.41385327  0.86275477    -0.82600
C650        C  0.06648774  0.40975173  0.87352209     0.97900
O651        O  0.05806930  0.38418580  0.88658752    -0.82600
O652        O  0.05749016  0.33037971  0.92135291    -0.85200
C653        C  0.06193870  0.34011340  0.94909479     1.02400
O654        O  0.08934533  0.34849648  0.95669850    -0.78100
O655        O  0.14072295  0.38600357  0.95305711    -0.78200
C656        C  0.12698718  0.41194680  0.94801710     1.02400
Cr657      Cr  0.13137383  0.39735251  0.88402448     1.93700
Cr658      Cr  0.08087551  0.34546611  0.88086718     1.93200
Cr659      Cr  0.12971545  0.34466170  0.93340331     1.39100
O660        O  0.11403283  0.36189002  0.89925809    -1.23300
O661        O  0.12461927  0.34090116  0.65189183    -0.85600
O662        O  0.11074936  0.39482574  0.68286422    -0.83600
C663        C  0.13740869  0.39714123  0.69528931     0.97900
O664        O  0.16034177  0.40920313  0.67946890    -0.82600
O665        O  0.19699415  0.42198619  0.62585305    -0.85300
C666        C  0.20959802  0.39639866  0.61849696     1.02400
O667        O  0.19351142  0.37292862  0.61059191    -0.78000
O668        O  0.14155557  0.33457087  0.60344290    -0.78200
C669        C  0.13306232  0.32296107  0.63024922     1.02400
O670        O  0.08543084  0.36039439  0.60146466    -0.85500
O671        O  0.07881428  0.41622325  0.62855219    -0.82600
C672        C  0.08554464  0.44315892  0.63829627     0.97900
O673        O  0.11131333  0.44842324  0.65195245    -0.82600
O674        O  0.14567765  0.45418131  0.59809473    -0.85200
C675        C  0.15616854  0.44736015  0.57115539     1.02400
O676        O  0.16847842  0.42054779  0.56736399    -0.78100
O677        O  0.11569202  0.38448485  0.56581467    -0.78200
C678        C  0.09022253  0.37098365  0.57382912     1.02400
Cr679      Cr  0.10234715  0.37924527  0.64022157     1.93700
Cr680      Cr  0.15279718  0.43113318  0.63812784     1.93200
Cr681      Cr  0.15389324  0.37916302  0.58925638     1.39100
O682        O  0.13669494  0.39636073  0.62260778    -1.23300
O683        O  0.38566162  0.35890542  0.58014928    -0.85600
O684        O  0.35104235  0.40880983  0.56977661    -0.82600
C685        C  0.34103720  0.41296921  0.59736899     0.97900
O686        O  0.35871559  0.42477068  0.61713673    -0.82600
O687        O  0.40915453  0.43489215  0.65039961    -0.85300
C688        C  0.41179292  0.40716086  0.66078788     1.02400
O689        O  0.42390081  0.38669958  0.64398998    -0.78000
O690        O  0.43376987  0.35132735  0.59435361    -0.78200
C691        C  0.40600729  0.34121197  0.59116886     1.02400
O692        O  0.43377368  0.37714312  0.53466843    -0.85500
O693        O  0.39234810  0.43804019  0.52839035    -0.82600
C694        C  0.37524003  0.46122258  0.53775590     0.97900
O695        O  0.37714729  0.46809678  0.56713629    -0.82600
O696        O  0.43890753  0.47425042  0.60786811    -0.85200
C697        C  0.46172085  0.46465197  0.62542940     1.02400
O698        O  0.46810132  0.43505738  0.62427817    -0.78100
O699        O  0.47314889  0.39355003  0.56347577    -0.78200
C700        C  0.46341996  0.37600031  0.54084152     1.02400
Cr701      Cr  0.39393399  0.39770383  0.55553971     1.93700
Cr702      Cr  0.39794903  0.44813517  0.60739264     1.93200
Cr703      Cr  0.44741853  0.39481604  0.60452185     1.39100
O704        O  0.41470201  0.41514000  0.58750981    -1.23300
O705        O  0.10113485  0.17653781  0.61672638    -0.85600
O706        O  0.15710891  0.14817427  0.63105978    -0.82600
C707        C  0.17549103  0.12745941  0.64125865     0.97900
O708        O  0.16457495  0.10060895  0.65075615    -0.82600
O709        O  0.12734610  0.10575155  0.70352038    -0.85300
C710        C  0.10503195  0.11617393  0.71984941     1.02400
O711        O  0.07947220  0.12442675  0.70762909    -0.78000
O712        O  0.08978696  0.17577159  0.66687958    -0.78200
C713        C  0.09951682  0.19067443  0.64235748     1.02400
O714        O  0.08114998  0.11996604  0.58932308    -0.85500
O715        O  0.13893489  0.09587074  0.59487062    -0.82600
C716        C  0.12860899  0.06824911  0.59974927     0.97900
O717        O  0.11574543  0.06029084  0.62557656    -0.82600
O718        O  0.08030122  0.06134973  0.67891844    -0.85200
C719        C  0.05287394  0.06556103  0.66813979     1.02400
O720        O  0.04546793  0.09296165  0.65929282    -0.78100
O721        O  0.04931893  0.14451721  0.62154018    -0.78200
C722        C  0.05448899  0.13063166  0.59589025     1.02400
Cr723      Cr  0.11842474  0.13411522  0.61074716     1.93700
Cr724      Cr  0.12086107  0.08449369  0.66368465     1.93200
Cr725      Cr  0.06841467  0.13358667  0.66306057     1.39100
O726        O  0.10278297  0.11752481  0.64641320    -1.23300
O727        O  0.35238205  0.12353757  0.66537076    -0.85600
O728        O  0.32080069  0.11185567  0.61108107    -0.82600
C729        C  0.30802143  0.13842042  0.60939056     0.97900
O730        O  0.32368895  0.16179531  0.59797320    -0.82600
O731        O  0.37748734  0.19854793  0.58544603    -0.85300
C732        C  0.38454488  0.21050695  0.61137333     1.02400
O733        O  0.39266263  0.19378676  0.63433043    -0.78000
O734        O  0.40078458  0.14121472  0.67110939    -0.78200
C735        C  0.37441918  0.13166661  0.68302611     1.02400
O736        O  0.40268790  0.08579365  0.64392249    -0.85500
O737        O  0.37490551  0.08084455  0.58854165    -0.82600
C738        C  0.36412638  0.08797043  0.56214905     0.97900
O739        O  0.35050064  0.11389188  0.55750380    -0.82600
O740        O  0.40474931  0.14784555  0.55177262    -0.85200
C741        C  0.43189957  0.15804584  0.55848831     1.02400
O742        O  0.43585547  0.17015965  0.58534149    -0.78100
O743        O  0.43804416  0.11683431  0.62035936    -0.78200
C744        C  0.43014732  0.09094953  0.63307527     1.02400
Cr745      Cr  0.36361678  0.10298748  0.62610888     1.93700
Cr746      Cr  0.36488338  0.15473466  0.57544783     1.93200
Cr747      Cr  0.41441372  0.15465755  0.62677590     1.39100
O748        O  0.38086233  0.13779929  0.60967751    -1.23300
C749        C  0.22152083  0.16008479  0.62071141    -0.09400
C750        C  0.21008812  0.13327237  0.63815247     0.06800
C751        C  0.23199453  0.11083192  0.64857628    -0.03100
C752        C  0.26377238  0.11497317  0.64066698    -0.07600
C753        C  0.27482995  0.14004201  0.62088339     0.06000
C754        C  0.25347422  0.16341775  0.61163432    -0.02600
Br755      Br  0.26553300  0.19870861  0.58458844    -0.02300
H756        H  0.20528193  0.17769576  0.61235257     0.09900
H757        H  0.27984460  0.09715020  0.64893219     0.07900
Br758      Br  0.22104457  0.07222345  0.67132865    -0.02700
C759        C  0.42044568  0.29057287  0.61566430    -0.09400
C760        C  0.39776222  0.30843646  0.59994078     0.06800
C761        C  0.36828858  0.29426266  0.59281739    -0.03100
C762        C  0.36343148  0.26225359  0.59908778    -0.07600
C763        C  0.38691133  0.24440508  0.61306765     0.06000
C764        C  0.41505009  0.25887247  0.62278312    -0.02600
Br765      Br  0.44848305  0.23616541  0.64262835    -0.02300
H766        H  0.44284707  0.30110272  0.62204540     0.09900
H767        H  0.34172393  0.25088427  0.59179739     0.07900
Br768      Br  0.33401126  0.31567450  0.57300539    -0.02700
C769        C  0.13061536  0.23464164  0.61756129    -0.09400
C770        C  0.10974111  0.22419175  0.64202209     0.06800
C771        C  0.09871455  0.24613549  0.66375722    -0.03100
C772        C  0.10854848  0.27773640  0.66058717    -0.07600
C773        C  0.12837715  0.28846804  0.63526520     0.06000
C774        C  0.13953812  0.26629910  0.61363550    -0.02600
Br775      Br  0.16606802  0.27700967  0.57751559    -0.02300
H776        H  0.13962746  0.21809864  0.60066713     0.09900
H777        H  0.09898843  0.29431116  0.67713256     0.07900
Br778      Br  0.06759098  0.23548615  0.69589009    -0.02700
C779        C  0.26191714  0.40573165  0.64001475    -0.09400
C780        C  0.24343250  0.39553425  0.61525577     0.06800
C781        C  0.25723485  0.38885116  0.58593334    -0.03100
C782        C  0.28934152  0.39336225  0.58144446    -0.07600
C783        C  0.30808448  0.40514794  0.60553010     0.06000
C784        C  0.29429369  0.41036578  0.63562081    -0.02600
Br785      Br  0.31698560  0.42463902  0.67158601    -0.02300
H786        H  0.25093066  0.41096419  0.66252710     0.09900
H787        H  0.29930694  0.38896480  0.55830172     0.07900
Br788      Br  0.23322797  0.37766717  0.54974701    -0.02700
C789        C  0.15691686  0.38995745  0.78209333    -0.09400
C790        C  0.13283469  0.36859562  0.79277576     0.06800
C791        C  0.11432115  0.35331712  0.77028967    -0.03100
C792        C  0.11838671  0.36148715  0.73847274    -0.07600
C793        C  0.13994623  0.38540682  0.72819913     0.06000
C794        C  0.16034943  0.39876221  0.75019781    -0.02600
Br795      Br  0.19052628  0.43168476  0.73911938    -0.02300
H796        H  0.17170140  0.40181107  0.79884129     0.09900
H797        H  0.10327901  0.35003985  0.72170265     0.07900
Br798      Br  0.08206463  0.32218449  0.78095936    -0.02700
C799        C  0.11110309  0.08246397  0.76594081    -0.09400
C800        C  0.10652262  0.11291370  0.75392565     0.06800
C801        C  0.09823407  0.13715484  0.77423205    -0.03100
C802        C  0.09161281  0.12985729  0.80588562    -0.07600
C803        C  0.09300617  0.09850621  0.81744325     0.06000
C804        C  0.10439186  0.07487676  0.79731784    -0.02600
Br805      Br  0.10971681  0.03123044  0.80925285    -0.02300
H806        H  0.11778379  0.06379502  0.75023620     0.09900
H807        H  0.08447122  0.14865159  0.82119342     0.07900
Br808      Br  0.09646333  0.18028950  0.76001464    -0.02700
C809        C  0.07683805  0.20647116  0.89030651    -0.09400
C810        C  0.09663356  0.19018772  0.91096404     0.06800
C811        C  0.12402767  0.20558450  0.92195662    -0.03100
C812        C  0.12996315  0.23700630  0.91348306    -0.07600
C813        C  0.10854885  0.25396841  0.89539510     0.06000
C814        C  0.08224584  0.23821366  0.88273530    -0.02600
Br815      Br  0.05034579  0.25894449  0.85867595    -0.02300
H816        H  0.05608269  0.19489594  0.88108458     0.09900
H817        H  0.15022265  0.24901404  0.92324645     0.07900
Br818      Br  0.15258419  0.18734741  0.95155682    -0.02700
C819        C  0.33984157  0.11860374  0.73001388    -0.09400
C820        C  0.37023988  0.12630681  0.71748606     0.06800
C821        C  0.39624115  0.12457852  0.73763652    -0.03100
C822        C  0.39127034  0.11663193  0.76925218    -0.07600
C823        C  0.36110175  0.10821189  0.78182855     0.06000
C824        C  0.33516170  0.10904446  0.76165263    -0.02600
Br825      Br  0.29331541  0.09601792  0.77500664    -0.02300
H826        H  0.31959174  0.11888059  0.71484593     0.09900
H827        H  0.41193202  0.11590722  0.78383743     0.07900
Br828      Br  0.43983180  0.12881530  0.72402026    -0.02700
C829        C  0.23070072  0.08464679  0.87524730    -0.09400
C830        C  0.24763028  0.10470391  0.89470334     0.06800
C831        C  0.23183262  0.12045657  0.91918260    -0.03100
C832        C  0.19999371  0.11399161  0.92493338    -0.07600
C833        C  0.18359075  0.09218530  0.90678996     0.06000
C834        C  0.19899113  0.07805133  0.88109813    -0.02600
Br835      Br  0.17993657  0.04712922  0.85471644    -0.02300
H836        H  0.24266785  0.07257784  0.85634569     0.09900
H837        H  0.18826879  0.12535656  0.94439798     0.07900
Br838      Br  0.25216842  0.14847799  0.94781875    -0.02700
C839        C  0.39517730  0.36303691  0.73748959    -0.09400
C840        C  0.38947415  0.38845966  0.75681353     0.06800
C841        C  0.38674411  0.41908514  0.74412533    -0.03100
C842        C  0.39386285  0.42453553  0.71259455    -0.07600
C843        C  0.40179037  0.39947064  0.69314093     0.06000
C844        C  0.40003615  0.36814404  0.70536552    -0.02600
Br845      Br  0.40240462  0.33126022  0.68028281    -0.02300
H846        H  0.39604850  0.33930938  0.74748393     0.09900
H847        H  0.39370056  0.44863208  0.70353262     0.07900
Br848      Br  0.37550599  0.45466985  0.76899382    -0.02700
C849        C  0.23354412  0.39469613  0.88092489    -0.09400
C850        C  0.22073423  0.36554265  0.89219246     0.06800
C851        C  0.24007663  0.33888904  0.89204206    -0.03100
C852        C  0.27136535  0.34196966  0.88102732    -0.07600
C853        C  0.28444999  0.37149236  0.87118061     0.06000
C854        C  0.26482146  0.39807970  0.87085467    -0.02600
Br855      Br  0.27854459  0.44056704  0.85946588    -0.02300
H856        H  0.21933266  0.41567230  0.88050399     0.09900
H857        H  0.28600064  0.32129240  0.88177065     0.07900
Br858      Br  0.22644742  0.29825826  0.90851872    -0.02700
C859        C  0.37884520  0.21997374  0.84283125    -0.09400
C860        C  0.36059644  0.20949552  0.86946060     0.06800
C861        C  0.34822979  0.23230610  0.88964484    -0.03100
C862        C  0.35718105  0.26389769  0.88508897    -0.07600
C863        C  0.37843370  0.27391566  0.86072083     0.06000
C864        C  0.38774539  0.25183783  0.83826331    -0.02600
Br865      Br  0.41411330  0.26294946  0.80229588    -0.02300
H866        H  0.38786500  0.20311500  0.82628650     0.09900
H867        H  0.34813775  0.28071419  0.90168603     0.07900
Br868      Br  0.31960426  0.22253014  0.92436681    -0.02700
C869        C  0.45626265  0.65158390  0.03602510     0.29800
C870        C  0.00364300  0.64100369  0.48960471     0.29800
C871        C  0.44645449  0.63229626  0.50417326    -0.06400
C872        C  0.47469624  0.68029999  0.02186449    -0.07200
C873        C  0.98313596  0.63678956  0.04771592    -0.07100
C874        C  0.47034670  0.62552944  0.48211708    -0.06400
C875        C  0.99976533  0.67877894  0.49762934    -0.07200
C876        C  0.00672804  0.62903582  0.02518404    -0.07100
C877        C  0.45576880  0.62168960  0.45376555    -0.32400
N878        N  0.42447237  0.62369214  0.45881514     0.14100
C879        C  0.41840104  0.63039585  0.48890290    -0.32500
H880        H  0.39531877  0.63713831  0.49728822     0.16000
C881        C  0.01074606  0.71030343  0.48975754    -0.31400
N882        N  0.49330795  0.72848784  0.00702587     0.12800
C883        C  0.47172528  0.71261532  0.02568772    -0.31400
C884        C  0.03409427  0.62599221  0.04143685    -0.31700
N885        N  0.02847612  0.63194032  0.07191241     0.13300
H886        H  0.05756038  0.62399574  0.03138136     0.15900
C887        C  0.99789079  0.63893222  0.07619709    -0.31700
H888        H  0.98810965  0.64865784  0.09752675     0.15900
H889        H  0.45469778  0.72357068  0.04089858     0.15900
H890        H  0.46688544  0.62010312  0.43071918     0.16000
H891        H  0.02958342  0.71589827  0.47274459     0.15900
C892        C  0.03539600  0.84391230  0.47691350     0.29800
C893        C  0.48745581  0.85522995  0.01976994     0.29800
C894        C  0.51090151  0.86191548  0.46383243    -0.06400
C895        C  0.01660454  0.81532039  0.49062964    -0.07200
C896        C  0.04412961  0.86089780  0.00621675    -0.07100
C897        C  0.48558915  0.86920838  0.98613681    -0.06400
C898        C  0.49119569  0.81733105  0.01224065    -0.07200
C899        C  0.52153003  0.86334536  0.02801438    -0.07100
C900        C  0.46125491  0.87775867  0.46904836    -0.32400
N901        N  0.46689820  0.87197040  0.43859068     0.14100
C902        C  0.49668184  0.86208147  0.43493860    -0.32500
H903        H  0.50546553  0.85092386  0.41395978     0.16000
C904        C  0.48024458  0.78590112  0.02085663    -0.31400
N905        N  0.49680165  0.76272755  0.00473570     0.12800
C906        C  0.01923824  0.78318226  0.48617402    -0.31400
C907        C  0.03427893  0.87053271  0.05691945    -0.31700
N908        N  0.06547162  0.86651618  0.05276422     0.13300
H909        H  0.02271222  0.87339917  0.07958652     0.15900
C910        C  0.07178773  0.86001252  0.02251011    -0.31700
H911        H  0.09471584  0.85279130  0.01408196     0.15900
H912        H  0.03620882  0.77234408  0.47081187     0.15900
H913        H  0.43786535  0.88134510  0.47868392     0.16000
H914        H  0.46168497  0.78065010  0.03827057     0.15900
C915        C  0.13589942  0.51391156  0.49569299     0.29800
C916        C  0.15079114  0.97011930  0.04579971     0.29800
C917        C  0.12502684  0.97908665  0.49539985    -0.06400
C918        C  0.17400746  0.50677538  0.50011632    -0.07200
C919        C  0.12657957  0.52335038  0.02925281    -0.07100
C920        C  0.13330636  0.95700602  0.51919332    -0.06400
C921        C  0.17938452  0.98357663  0.02673431    -0.07200
C922        C  0.13369870  0.50117480  0.05296369    -0.07100
C923        C  0.13508346  0.92814518  0.50499772    -0.32400
N924        N  0.12748177  0.93180557  0.47459221     0.14100
C925        C  0.12107694  0.96222212  0.46861320    -0.32500
H926        H  0.11862911  0.97198978  0.44508072     0.16000
C927        C  0.21159669  0.97891516  0.02934542    -0.31400
N928        N  0.22766001  0.99696616  0.00745133     0.12800
C929        C  0.20573858  0.51428376  0.48910229    -0.31400
C930        C  0.13429863  0.51696847  0.08071836    -0.31700
N931        N  0.12816829  0.54730801  0.07472632     0.13300
H932        H  0.14155277  0.50835972  0.10354125     0.15900
C933        C  0.12458338  0.55210226  0.04359596    -0.31700
H934        H  0.12240127  0.57507534  0.03229583     0.15900
H935        H  0.21141917  0.53084590  0.46984202     0.15900
H936        H  0.14560487  0.90711653  0.51471686     0.16000
H937        H  0.22237982  0.96357745  0.04643391     0.15900
C938        C  0.35451432  0.98282082  0.01548378     0.29800
C939        C  0.33983118  0.52634634  0.46536326     0.29800
C940        C  0.36433500  0.97590559  0.98164976    -0.06400
C941        C  0.31653526  0.98990989  0.01037763    -0.07200
C942        C  0.36878113  0.51811846  0.01327106    -0.07100
C943        C  0.35969877  0.99969897  0.45664597    -0.06400
C944        C  0.31112597  0.51207230  0.48348756    -0.07200
C945        C  0.35989463  0.54010338  0.98969474    -0.07100
C946        C  0.35737887  0.98316585  0.42937234    -0.32400
N947        N  0.36313757  0.95281807  0.43581886     0.14100
C948        C  0.36789921  0.94860922  0.46673004    -0.32500
H949        H  0.36997168  0.92578758  0.47836411     0.16000
C950        C  0.27897983  0.51672059  0.48055017    -0.31400
N951        N  0.26232703  0.50098450  0.00258314     0.12800
C952        C  0.28477635  0.98174449  0.02077343    -0.31400
C953        C  0.35699921  0.56871052  0.00439540    -0.31700
N954        N  0.36532783  0.56497547  0.03462412     0.13300
H955        H  0.34541995  0.58937284  0.99515433     0.15900
C956        C  0.37293000  0.53481575  0.04000781    -0.31700
H957        H  0.37627346  0.52496744  0.06333708     0.15900
H958        H  0.27906924  0.96460740  0.03950082     0.15900
H959        H  0.34933926  0.99145656  0.40670913     0.16000
H960        H  0.26832482  0.53221907  0.46352007     0.15900
C961        C  0.48190513  0.98649099  0.14741139     0.29800
C962        C  0.02456506  0.53924292  0.15976447     0.29800
C963        C  0.47457680  0.52130082  0.13468399    -0.06400
C964        C  0.48978740  0.99129293  0.18504677    -0.07200
C965        C  0.51551720  0.98458696  0.13354615    -0.07100
C966        C  0.49604302  0.54541507  0.14244229    -0.06400
C967        C  0.00993734  0.52110445  0.18840639    -0.07200
C968        C  0.03910762  0.01195087  0.14181017    -0.07100
C969        C  0.47892790  0.57241912  0.14466810    -0.32400
N970        N  0.44875536  0.56556168  0.13829486     0.14100
C971        C  0.44529726  0.53460026  0.13328701    -0.32500
H972        H  0.42278833  0.52264474  0.13046381     0.16000
C973        C  0.01355461  0.52444464  0.22061704    -0.31400
N974        N  0.49807224  0.49817114  0.23575524     0.12800
C975        C  0.48223008  0.98053953  0.21669412    -0.31400
C976        C  0.06746374  0.99703397  0.14439130    -0.31700
N977        N  0.06314665  0.96669512  0.13677304     0.13300
H978        H  0.08849961  0.00631542  0.15517628     0.15900
C979        C  0.03296079  0.96131795  0.12965429    -0.31700
H980        H  0.02283609  0.93797320  0.12707047     0.15900
H981        H  0.46541175  0.96155212  0.22256472     0.15900
H982        H  0.48677480  0.59520720  0.15269998     0.16000
H983        H  0.02885344  0.54142021  0.23141520     0.15900
C984        C  0.00754572  0.50966276  0.36335398     0.29800
C985        C  0.46678552  0.95913108  0.35024142     0.29800
C986        C  0.47735564  0.51012402  0.37497440    -0.06400
C987        C  0.00046759  0.50576033  0.32533275    -0.07200
C988        C  0.02192196  0.97532787  0.37401475    -0.07100
C989        C  0.45520709  0.48635112  0.36732396    -0.06400
C990        C  0.48162889  0.97705314  0.32164036    -0.07200
C991        C  0.99977990  0.95149727  0.36761938    -0.07100
C992        C  0.42646632  0.50081235  0.36483190    -0.32400
N993        N  0.43026420  0.53151013  0.37136457     0.14100
C994        C  0.46074276  0.53742364  0.37752060    -0.32500
H995        H  0.47062583  0.56095934  0.37942580     0.16000
C996        C  0.47783121  0.97362115  0.28953992    -0.31400
N997        N  0.49690331  0.99455664  0.27339626     0.12800
C998        C  0.00855853  0.51682374  0.29380443    -0.31400
C999        C  0.01523969  0.92356581  0.36821445    -0.31700
N1000       N  0.04554760  0.92962054  0.37436875     0.13300
H1001       H  0.00641103  0.90051472  0.36196854     0.15900
C1002       C  0.05055553  0.96088959  0.37682882    -0.31700
H1003       H  0.07353571  0.97208444  0.37901479     0.15900
H1004       H  0.02560569  0.53572018  0.28835825     0.15900
H1005       H  0.40520532  0.49071254  0.35522209     0.16000
H1006       H  0.46221201  0.95683284  0.27891987     0.15900
O1007       O  0.33924241  0.84865016  0.38472160    -0.85600
O1008       O  0.39561076  0.82138488  0.39753968    -0.82600
C1009       C  0.39691035  0.80716676  0.37185644     0.97900
O1010       O  0.40575375  0.82213155  0.34703217    -0.82600
O1011       O  0.41602856  0.87410034  0.30639128    -0.85300
C1012       C  0.39006354  0.88078217  0.29406216     1.02400
O1013       O  0.36731157  0.88960875  0.31059045    -0.78000
O1014       O  0.32957448  0.89520870  0.36295959    -0.78200
C1015       C  0.32001915  0.86840374  0.37432520     1.02400
O1016       O  0.35691361  0.90185671  0.41900564    -0.85500
O1017       O  0.41570246  0.87919305  0.42386507    -0.82600
C1018       C  0.44230735  0.86855178  0.41686321     0.97900
O1019       O  0.44650575  0.85337732  0.39187401    -0.82600
O1020       O  0.44968450  0.90470155  0.35475630    -0.85200
C1021       C  0.44220700  0.93185500  0.34554631     1.02400
O1022       O  0.41453954  0.93582278  0.33471587    -0.78100
O1023       O  0.37778784  0.93741977  0.38664610    -0.78200
C1024       C  0.36581752  0.92970996  0.41284858     1.02400
Cr1025     Cr  0.37798983  0.86378519  0.40367998     1.93700
Cr1026     Cr  0.42697765  0.86434410  0.35075715     1.93200
Cr1027     Cr  0.37347842  0.91213597  0.34961669     1.39100
O1028       O  0.39248807  0.88002461  0.36754263    -1.23300
O1029       O  0.38052827  0.60647106  0.32572104    -0.85600
O1030       O  0.36762589  0.65887757  0.35959066    -0.82600
C1031       C  0.35984843  0.67563830  0.38238817     0.97900
O1032       O  0.35006528  0.66274378  0.40814825    -0.82600
O1033       O  0.29803365  0.62453345  0.39676885    -0.85300
C1034       C  0.28218818  0.60084966  0.38882951     1.02400
O1035       O  0.29557786  0.57517484  0.38296324    -0.78000
O1036       O  0.33207709  0.58727363  0.32931638    -0.78200
C1037       C  0.35429337  0.60055730  0.31340868     1.02400
O1038       O  0.41382873  0.58216017  0.37849364    -0.85500
O1039       O  0.40622548  0.63509919  0.40910895    -0.82600
C1040       C  0.40097744  0.62282476  0.43602622     0.97900
O1041       O  0.37457048  0.61106905  0.44376756    -0.82600
O1042       O  0.32147058  0.57600028  0.44041051    -0.85200
C1043       C  0.33535489  0.54988114  0.43745382     1.02400
O1044       O  0.34759145  0.54381401  0.41101885    -0.78100
O1045       O  0.38114961  0.54958054  0.35611779    -0.78200
C1046       C  0.40736963  0.55530075  0.36854384     1.02400
Cr1047     Cr  0.38947398  0.61941161  0.36914823     1.93700
Cr1048     Cr  0.33697327  0.61771254  0.41966638     1.93200
Cr1049     Cr  0.33986242  0.56633182  0.37074576     1.39100
O1050       O  0.35515746  0.60145938  0.38615678    -1.23300
O1051       O  0.05863015  0.64590098  0.41459155    -0.85600
O1052       O  0.06904260  0.60999978  0.36496336    -0.82600
C1053       C  0.07957339  0.58884699  0.34782067     0.97900
O1054       O  0.08234283  0.56134453  0.35852814    -0.82600
O1055       O  0.13290657  0.57101740  0.39238205    -0.85300
C1056       C  0.15100251  0.58219450  0.41222464     1.02400
O1057       O  0.14120567  0.58785206  0.43958829    -0.78000
O1058       O  0.10668417  0.63705405  0.42814420    -0.78200
C1059       C  0.08639115  0.65547836  0.41857374     1.02400
O1060       O  0.01821191  0.60434133  0.44456768    -0.85500
O1061       O  0.02362162  0.56307325  0.38416461    -0.82600
C1062       C  0.02949598  0.53343660  0.38341145     0.97900
O1063       O  0.05173902  0.52347048  0.40151456    -0.82600
O1064       O  0.11366346  0.52873672  0.44215814    -0.85200
C1065       C  0.11594212  0.53587086  0.47139676     1.02400
O1066       O  0.09899581  0.55913346  0.48077268    -0.78100
O1067       O  0.05770265  0.62006007  0.47366770    -0.78200
C1068       C  0.02801308  0.62153824  0.46739496     1.02400
Cr1069     Cr  0.04472685  0.60267673  0.40407179     1.93700
Cr1070     Cr  0.09321489  0.54850955  0.40183148     1.93200
Cr1071     Cr  0.09786580  0.59911199  0.45331844     1.39100
O1072       O  0.07694742  0.58179215  0.42145354    -1.23300
O1073       O  0.17656700  0.88428820  0.40260782    -0.85600
O1074       O  0.14627929  0.87122908  0.34847408    -0.82600
C1075       C  0.12514438  0.86220412  0.33019341     0.97900
O1076       O  0.09789149  0.85420408  0.34115860    -0.82600
O1077       O  0.10443293  0.80254806  0.37960481    -0.85300
C1078       C  0.11109426  0.78614506  0.40327698     1.02400
O1079       O  0.11772845  0.79855506  0.42908985    -0.78000
O1080       O  0.17219174  0.83471102  0.41791604    -0.78200
C1081       C  0.18851874  0.85752643  0.40627779     1.02400
O1082       O  0.12175459  0.91636995  0.42360403    -0.85500
O1083       O  0.09564324  0.91029011  0.36734910    -0.82600
C1084       C  0.06789693  0.90585596  0.37769820     0.97900
O1085       O  0.05922531  0.88015570  0.39039732    -0.82600
O1086       O  0.05967890  0.82718272  0.42641266    -0.85200
C1087       C  0.06314252  0.83934638  0.45329323     1.02400
O1088       O  0.09000144  0.84989889  0.46032413    -0.78100
O1089       O  0.14452357  0.88349950  0.45605946    -0.78200
C1090       C  0.13122719  0.90945188  0.45061255     1.02400
Cr1091     Cr  0.13399039  0.89311302  0.38671286     1.93700
Cr1092     Cr  0.08270265  0.84191359  0.38546431     1.93200
Cr1093     Cr  0.13042843  0.84243726  0.43849376     1.39100
O1094       O  0.11585190  0.85880707  0.40336723    -1.23300
O1095       O  0.12205683  0.84034626  0.15505905    -0.85600
O1096       O  0.10788935  0.89386886  0.18548026    -0.83600
C1097       C  0.13437671  0.89590816  0.19829882     0.97900
O1098       O  0.15775277  0.90733593  0.18256469    -0.82600
O1099       O  0.19472593  0.92047066  0.12906856    -0.85300
C1100       C  0.20816929  0.89527364  0.12202004     1.02400
O1101       O  0.19234966  0.87175334  0.11379948    -0.78000
O1102       O  0.14030150  0.83332090  0.10711418    -0.78200
C1103       C  0.13185417  0.82225831  0.13419984     1.02400
O1104       O  0.08364360  0.85940424  0.10356608    -0.85500
O1105       O  0.07755255  0.91556256  0.13040542    -0.82600
C1106       C  0.08461574  0.94215450  0.14078391     0.97900
O1107       O  0.11000690  0.94678370  0.15506008    -0.82600
O1108       O  0.14452433  0.95308638  0.10076256    -0.85200
C1109       C  0.15509095  0.94625984  0.07372518     1.02400
O1110       O  0.16706911  0.91922487  0.06995869    -0.78100
O1111       O  0.11450498  0.88275430  0.06802175    -0.78200
C1112       C  0.08873450  0.86973155  0.07584861     1.02400
Cr1113     Cr  0.10020053  0.87840512  0.14255639     1.93700
Cr1114     Cr  0.15099497  0.92963387  0.14110156     1.93200
Cr1115     Cr  0.15254060  0.87778569  0.09219094     1.39100
O1116       O  0.13490488  0.89512792  0.12530003    -1.23300
O1117       O  0.38434369  0.85635373  0.07880217    -0.85600
O1118       O  0.34930260  0.90577213  0.06883360    -0.82600
C1119       C  0.33901196  0.91045224  0.09615701     0.97900
O1120       O  0.35646520  0.92058920  0.11705334    -0.82600
O1121       O  0.40518443  0.92990850  0.15339841    -0.85300
C1122       C  0.40891139  0.90190773  0.16290936     1.02400
O1123       O  0.42091304  0.88240931  0.14498754    -0.78000
O1124       O  0.43177688  0.84825320  0.09513835    -0.78200
C1125       C  0.40410787  0.83842841  0.09051935     1.02400
O1126       O  0.43359624  0.87623729  0.03550229    -0.85500
O1127       O  0.39159961  0.93723344  0.02993104    -0.82600
C1128       C  0.37412860  0.96000251  0.03974326     0.97900
O1129       O  0.37551695  0.96586864  0.06944524    -0.82600
O1130       O  0.43604120  0.97123495  0.11168047    -0.85200
C1131       C  0.45928908  0.96168765  0.12858902     1.02400
O1132       O  0.46573387  0.93201788  0.12710510    -0.78100
O1133       O  0.47245685  0.89089351  0.06585026    -0.78200
C1134       C  0.46305951  0.87439332  0.04231673     1.02400
Cr1135     Cr  0.39301894  0.89590459  0.05576141     1.93700
Cr1136     Cr  0.39548416  0.94454362  0.10969351     1.93200
Cr1137     Cr  0.44536483  0.89171275  0.10628258     1.39100
O1138       O  0.41290524  0.91235090  0.08899749    -1.23300
O1139       O  0.10036164  0.67838887  0.11878459    -0.85600
O1140       O  0.15475329  0.64814839  0.13206231    -0.82600
C1141       C  0.17310465  0.62705509  0.14118618     0.97900
O1142       O  0.16237815  0.60009652  0.15070463    -0.82600
O1143       O  0.12294122  0.60670381  0.20219428    -0.85300
C1144       C  0.09919559  0.61489048  0.21783440     1.02400
O1145       O  0.07362812  0.62110811  0.20475135    -0.78000
O1146       O  0.08712741  0.67507694  0.16855441    -0.78200
C1147       C  0.09871614  0.69087375  0.14535295     1.02400
O1148       O  0.07929202  0.62395102  0.08741468    -0.85500
O1149       O  0.13586107  0.59748953  0.09359629    -0.82600
C1150       C  0.12556712  0.56979131  0.09843298     0.97900
O1151       O  0.11320781  0.56135126  0.12435638    -0.82600
O1152       O  0.07575306  0.56272216  0.17640524    -0.85200
C1153       C  0.04873429  0.56674007  0.16426576     1.02400
O1154       O  0.04201273  0.59382105  0.15375500    -0.78100
O1155       O  0.04779691  0.64830042  0.11987593    -0.78200
C1156       C  0.05268670  0.63469690  0.09413085     1.02400
Cr1157     Cr  0.11646672  0.63592978  0.11040769     1.93700
Cr1158     Cr  0.11754025  0.58511720  0.16251524     1.93200
Cr1159     Cr  0.06502928  0.63382539  0.16095703     1.39100
O1160       O  0.09989254  0.61825192  0.14493732    -1.23300
O1161       O  0.34535361  0.61878947  0.16289234    -0.85600
O1162       O  0.31601109  0.60898973  0.10829332    -0.82600
C1163       C  0.30403757  0.63596789  0.10666809     0.97900
O1164       O  0.32013484  0.65935177  0.09598051    -0.82600
O1165       O  0.37416411  0.69613165  0.08528792    -0.85300
C1166       C  0.37979939  0.70818418  0.11150963     1.02400
O1167       O  0.38661975  0.69131726  0.13478204    -0.78000
O1168       O  0.39258689  0.63861239  0.17188951    -0.78200
C1169       C  0.36544521  0.62873734  0.18170939     1.02400
O1170       O  0.39722001  0.58209719  0.14311531    -0.85500
O1171       O  0.37179116  0.57881464  0.08592226    -0.82600
C1172       C  0.36149815  0.58643489  0.05941349     0.97900
O1173       O  0.34741779  0.61217820  0.05537030    -0.82600
O1174       O  0.40176364  0.64586557  0.05245531    -0.85200
C1175       C  0.42863013  0.65595442  0.05990936     1.02400
O1176       O  0.43212172  0.66738067  0.08725115    -0.78100
O1177       O  0.43338624  0.61469695  0.12329216    -0.78200
C1178       C  0.42536492  0.58836476  0.13486698     1.02400
Cr1179     Cr  0.35870549  0.59959481  0.12392345     1.93700
Cr1180     Cr  0.36155858  0.65252495  0.07465606     1.93200
Cr1181     Cr  0.40878484  0.65210125  0.12814414     1.39100
O1182       O  0.37629547  0.63501674  0.10921595    -1.23300
C1183       C  0.21610875  0.64503870  0.10503568    -0.09400
C1184       C  0.20705398  0.63265813  0.13499164     0.06800
C1185       C  0.23041091  0.62467776  0.15663242    -0.03100
C1186       C  0.26225384  0.62785905  0.14751238    -0.07600
C1187       C  0.27109979  0.63888557  0.11702862     0.06000
C1188       C  0.24782951  0.64801139  0.09588667    -0.02600
Br1189     Br  0.25803430  0.66109705  0.05325920    -0.02300
H1190       H  0.19832050  0.65096824  0.08800560     0.09900
H1191       H  0.28017336  0.62081410  0.16396313     0.07900
Br1192     Br  0.22007269  0.60985575  0.19865292    -0.02700
C1193       C  0.41296996  0.78934735  0.12095413    -0.09400
C1194       C  0.39477550  0.80587852  0.09905265     0.06800
C1195       C  0.36812513  0.79085198  0.08602777    -0.03100
C1196       C  0.36164996  0.75939560  0.09351726    -0.07600
C1197       C  0.38143965  0.74232455  0.11320920     0.06000
C1198       C  0.40644801  0.75775700  0.12832943    -0.02600
Br1199     Br  0.43463811  0.73670056  0.15648351    -0.02300
H1200       H  0.43304527  0.80071227  0.13164169     0.09900
H1201       H  0.34229493  0.74752128  0.08202512     0.07900
Br1202     Br  0.34137583  0.80968595  0.05505139    -0.02700
C1203       C  0.13313050  0.73396054  0.12413196    -0.09400
C1204       C  0.11076077  0.72368186  0.14731264     0.06800
C1205       C  0.09950612  0.74551253  0.16908320    -0.03100
C1206       C  0.10899250  0.77717903  0.16583728    -0.07600
C1207       C  0.12894452  0.78790522  0.14062400     0.06000
C1208       C  0.14196950  0.76560553  0.12033551    -0.02600
Br1209     Br  0.17097008  0.77626346  0.08622023    -0.02300
H1210       H  0.14300566  0.71736103  0.10777512     0.09900
H1211       H  0.09880204  0.79379413  0.18197362     0.07900
Br1212     Br  0.06859238  0.73493649  0.20128734    -0.02700
C1213       C  0.25791138  0.92461623  0.12597185    -0.09400
C1214       C  0.24263592  0.89574551  0.11976715     0.06800
C1215       C  0.26017565  0.87087159  0.10688395    -0.03100
C1216       C  0.29187916  0.87616009  0.09898440    -0.07600
C1217       C  0.30608229  0.90558117  0.10378748     0.06000
C1218       C  0.28912610  0.92989656  0.11741533    -0.02600
Br1219     Br  0.30646379  0.97179219  0.12179099    -0.02300
H1220       H  0.24516984  0.94414607  0.13576335     0.09900
H1221       H  0.30550788  0.85733813  0.08909907     0.07900
Br1222     Br  0.24310716  0.82960005  0.09873110    -0.02700
C1223       C  0.15518978  0.88699827  0.28486107    -0.09400
C1224       C  0.13122077  0.86562436  0.29575857     0.06800
C1225       C  0.11140846  0.85162556  0.27356861    -0.03100
C1226       C  0.11421857  0.86097169  0.24189702    -0.07600
C1227       C  0.13635047  0.88433575  0.23140472     0.06000
C1228       C  0.15769837  0.89665280  0.25312683    -0.02600
Br1229     Br  0.18829758  0.92913408  0.24192768    -0.02300
H1230       H  0.17085284  0.89800456  0.30139722     0.09900
H1231       H  0.09824193  0.85035474  0.22538824     0.07900
Br1232     Br  0.07980517  0.81991754  0.28458463    -0.02700
C1233       C  0.11238270  0.58506359  0.26492162    -0.09400
C1234       C  0.09934378  0.61225359  0.25177706     0.06800
C1235       C  0.08124128  0.63224075  0.27049960    -0.03100
C1236       C  0.07615741  0.62455875  0.30202307    -0.07600
C1237       C  0.08759110  0.59636686  0.31495867     0.06000
C1238       C  0.10590223  0.57634333  0.29604801    -0.02600
Br1239     Br  0.12119649  0.53589389  0.30945608    -0.02300
H1240       H  0.12546454  0.56907953  0.25021933     0.09900
H1241       H  0.06189632  0.64011794  0.31606396     0.07900
Br1242     Br  0.06129539  0.66924932  0.25429397    -0.02700
C1243       C  0.07542584  0.70627830  0.39314288    -0.09400
C1244       C  0.09501869  0.68833386  0.41241736     0.06800
C1245       C  0.12179706  0.70246001  0.42604134    -0.03100
C1246       C  0.12812052  0.73422034  0.42035164    -0.07600
C1247       C  0.10773975  0.75229530  0.40226718     0.06000
C1248       C  0.08130683  0.73823517  0.38825366    -0.02600
Br1249     Br  0.05010634  0.76159219  0.36565356    -0.02300
H1250       H  0.05476729  0.69568908  0.38269641     0.09900
H1251       H  0.14804279  0.74531427  0.43164991     0.07900
Br1252     Br  0.14874866  0.68163475  0.45562369    -0.02700
C1253       C  0.34139326  0.59719341  0.22587538    -0.09400
C1254       C  0.35810099  0.62471304  0.21553951     0.06800
C1255       C  0.36932429  0.64587485  0.23781756    -0.03100
C1256       C  0.36549105  0.63836761  0.26979177    -0.07600
C1257       C  0.35108790  0.60969520  0.28010440     0.06000
C1258       C  0.33816170  0.58932164  0.25791463    -0.02600
Br1259     Br  0.31977965  0.54885059  0.26952037    -0.02300
H1260       H  0.33266093  0.58060354  0.20891543     0.09900
H1261       H  0.37507289  0.65447732  0.28676920     0.07900
Br1262     Br  0.39030662  0.68500313  0.22604388    -0.02700
C1263       C  0.23176936  0.57617441  0.37537990    -0.09400
C1264       C  0.24770309  0.60109267  0.38987619     0.06800
C1265       C  0.23077559  0.62130532  0.40979999    -0.03100
C1266       C  0.19896204  0.61499704  0.41610032    -0.07600
C1267       C  0.18381182  0.58878091  0.40335917     0.06000
C1268       C  0.20033512  0.56930940  0.38264728    -0.02600
Br1269     Br  0.18323105  0.53031156  0.36755165    -0.02300
H1270       H  0.24444542  0.56029609  0.36023521     0.09900
H1271       H  0.18624933  0.63000709  0.43199073     0.07900
Br1272     Br  0.24948660  0.65571416  0.43208612    -0.02700
C1273       C  0.40799642  0.86127096  0.24302505    -0.09400
C1274       C  0.38783984  0.88090748  0.25973451     0.06800
C1275       C  0.37037725  0.90378887  0.24326078    -0.03100
C1276       C  0.37687681  0.90947751  0.21132127    -0.07600
C1277       C  0.39974509  0.89209201  0.19529244     0.06000
C1278       C  0.41376629  0.86625244  0.21096622    -0.02600
Br1279     Br  0.44291827  0.83804475  0.19154911    -0.02300
H1280       H  0.42065968  0.84290587  0.25533789     0.09900
H1281       H  0.36466256  0.92826320  0.19919105     0.07900
Br1282     Br  0.33951154  0.93004746  0.26295523    -0.02700
C1283       C  0.23115458  0.86413732  0.36625310    -0.09400
C1284       C  0.22177018  0.85440018  0.39697568     0.06800
C1285       C  0.24473453  0.84723654  0.41919544    -0.03100
C1286       C  0.27668070  0.85052561  0.41064943    -0.07600
C1287       C  0.28615688  0.86163147  0.38029920     0.06000
C1288       C  0.26310039  0.86784331  0.35780832    -0.02600
Br1289     Br  0.27403035  0.88127380  0.31550112    -0.02300
H1290       H  0.21349537  0.86995932  0.34905858     0.09900
H1291       H  0.29420274  0.84610848  0.42838296     0.07900
Br1292     Br  0.23351019  0.83690279  0.46229633    -0.02700
C1293       C  0.36259005  0.72662267  0.35171495    -0.09400
C1294       C  0.36689759  0.70988428  0.38028362     0.06800
C1295       C  0.38233500  0.72515809  0.40500701    -0.03100
C1296       C  0.39265214  0.75635629  0.40097256    -0.07600
C1297       C  0.38828581  0.77324009  0.37260513     0.06000
C1298       C  0.37294081  0.75815778  0.34777087    -0.02600
Br1299     Br  0.36420038  0.77972851  0.30875486    -0.02300
H1300       H  0.35123472  0.71506334  0.33234582     0.09900
H1301       H  0.40453721  0.76747742  0.42030163     0.07900
Br1302     Br  0.39301045  0.70446467  0.44402854    -0.02700
C1303       C  0.45598895  0.65115371  0.53280957     0.29800
C1304       C  0.00353043  0.64208076  0.99132825     0.29800
C1305       C  0.44626412  0.63412740  0.00651034    -0.06400
C1306       C  0.47336828  0.68005257  0.51768213    -0.07200
C1307       C  0.98108736  0.63467618  0.54486279    -0.07100
C1308       C  0.47010646  0.62691732  0.98464554    -0.06400
C1309       C  0.99837349  0.67978948  0.99831882    -0.07200
C1310       C  0.00491421  0.62653373  0.52290969    -0.07100
C1311       C  0.45594084  0.62394189  0.95601217    -0.32400
N1312       N  0.42470226  0.62701395  0.96049635     0.14100
C1313       C  0.41840620  0.63380353  0.99056341    -0.32500
H1314       H  0.39539792  0.64105113  0.99870383     0.16000
C1315       C  0.00876932  0.71128326  0.98970784    -0.31400
N1316       N  0.49133550  0.72849642  0.50288821     0.12800
C1317       C  0.46984407  0.71233485  0.52137757    -0.31400
C1318       C  0.03166924  0.62211744  0.53977125    -0.31700
N1319       N  0.02566564  0.62823505  0.57012112     0.13300
H1320       H  0.05525104  0.61975888  0.53010129     0.15900
C1321       C  0.99528036  0.63611035  0.57371120    -0.31700
H1322       H  0.98562254  0.64662380  0.59467822     0.15900
H1323       H  0.45278631  0.72306776  0.53672537     0.15900
H1324       H  0.46736326  0.62176485  0.93317933     0.16000
H1325       H  0.02732131  0.71680462  0.97237618     0.15900
C1326       C  0.03387693  0.84480761  0.97595875     0.29800
C1327       C  0.48767682  0.85534753  0.51883490     0.29800
C1328       C  0.50909625  0.86082683  0.96398459    -0.06400
C1329       C  0.01440027  0.81635257  0.98918094    -0.07200
C1330       C  0.04546665  0.86076239  0.50656262    -0.07100
C1331       C  0.48746866  0.87077163  0.48586309    -0.06400
C1332       C  0.49004885  0.81742995  0.51002570    -0.07200
C1333       C  0.52171421  0.86142282  0.52827077    -0.07100
C1334       C  0.45887767  0.87444194  0.96926124    -0.32400
N1335       N  0.46481735  0.86897177  0.93867469     0.14100
C1336       C  0.49498442  0.86031491  0.93504606    -0.32500
H1337       H  0.50456157  0.85035420  0.91376450     0.16000
C1338       C  0.47842153  0.78587130  0.51760317    -0.31400
N1339       N  0.49485024  0.76277243  0.50113968     0.12800
C1340       C  0.01695893  0.78410519  0.98511022    -0.31400
C1341       C  0.03621043  0.87023932  0.55722964    -0.31700
N1342       N  0.06743469  0.86696608  0.55242019     0.13300
H1343       H  0.02499151  0.87260112  0.58014205     0.15900
C1344       C  0.07335965  0.86045728  0.52228481    -0.31700
H1345       H  0.09628495  0.85326706  0.51386441     0.15900
H1346       H  0.03402521  0.77308803  0.97000107     0.15900
H1347       H  0.43539057  0.87751410  0.97890645     0.16000
H1348       H  0.45969404  0.78045479  0.53479274     0.15900
C1349       C  0.13554033  0.51531146  0.99545159     0.29800
C1350       C  0.15475491  0.96943146  0.54458824     0.29800
C1351       C  0.12099796  0.98006449  0.99654626    -0.06400
C1352       C  0.17351716  0.50804360  0.99992924    -0.07200
C1353       C  0.12702906  0.52238181  0.52928616    -0.07100
C1354       C  0.12963819  0.95775425  0.02003184    -0.06400
C1355       C  0.18333046  0.98252836  0.52525856    -0.07200
C1356       C  0.13425132  0.50062498  0.55327276    -0.07100
C1357       C  0.13169500  0.92918843  0.00521672    -0.32400
N1358       N  0.12342991  0.93328685  0.97497316     0.14100
C1359       C  0.11653607  0.96364491  0.96967774    -0.32500
H1360       H  0.11348685  0.97371940  0.94637081     0.16000
C1361       C  0.21556217  0.97801238  0.52768218    -0.31400
N1362       N  0.23132139  0.99636093  0.50579438     0.12800
C1363       C  0.20518958  0.51604554  0.98920015    -0.31400
C1364       C  0.13537520  0.51707663  0.58067590    -0.31700
N1365       N  0.12913202  0.54732149  0.57410206     0.13300
H1366       H  0.14275220  0.50883566  0.60359534     0.15900
C1367       C  0.12523235  0.55141674  0.54298524    -0.31700
H1368       H  0.12282939  0.57415112  0.53125861     0.15900
H1369       H  0.21080315  0.53298272  0.97024104     0.15900
H1370       H  0.14261342  0.90815182  0.01446303     0.16000
H1371       H  0.22656456  0.96285607  0.54477431     0.15900
C1372       C  0.35782313  0.98538918  0.51417906     0.29800
C1373       C  0.33912193  0.52706933  0.96404825     0.29800
C1374       C  0.36706470  0.97759120  0.48051699    -0.06400
C1375       C  0.31993839  0.99216642  0.50937051    -0.07200
C1376       C  0.36815710  0.51728736  0.51554155    -0.07100
C1377       C  0.35750690  0.99847369  0.95821171    -0.06400
C1378       C  0.31051882  0.51374489  0.98297403    -0.07200
C1379       C  0.35968958  0.53937749  0.49180643    -0.07100
C1380       C  0.35977510  0.98376440  0.92986641    -0.32400
N1381       N  0.36676595  0.95355335  0.93543123     0.14100
C1382       C  0.36847476  0.94786241  0.96663662    -0.32500
H1383       H  0.37047172  0.92462218  0.97740040     0.16000
C1384       C  0.27835816  0.51857640  0.98034426    -0.31400
N1385       N  0.26282394  0.49886902  0.50248092     0.12800
C1386       C  0.28854887  0.98286571  0.51951156    -0.31400
C1387       C  0.35612292  0.56785752  0.50658333    -0.31700
N1388       N  0.36324467  0.56400607  0.53717339     0.13300
H1389       H  0.34529965  0.58871029  0.49678420     0.15900
C1390       C  0.37065699  0.53380607  0.54273349    -0.31700
H1391       H  0.37316587  0.52387408  0.56616392     0.15900
H1392       H  0.28323698  0.96528909  0.53793975     0.15900
H1393       H  0.35356473  0.99262998  0.90682166     0.16000
H1394       H  0.26759667  0.53374789  0.96309860     0.15900
C1395       C  0.48487612  0.98881595  0.64494111     0.29800
C1396       C  0.02531088  0.53877563  0.65811283     0.29800
C1397       C  0.47527725  0.52265454  0.63645473    -0.06400
C1398       C  0.49126982  0.99394421  0.68284125    -0.07200
C1399       C  0.51872340  0.98631816  0.63227015    -0.07100
C1400       C  0.49694422  0.54660314  0.64378399    -0.06400
C1401       C  0.01118942  0.52062032  0.68685709    -0.07200
C1402       C  0.04174813  0.01115970  0.64351627    -0.07100
C1403       C  0.48033138  0.57413026  0.64457893    -0.32400
N1404       N  0.45015984  0.56763985  0.63784900     0.14100
C1405       C  0.44622658  0.53644468  0.63419395    -0.32500
H1406       H  0.42356877  0.52473496  0.63152331     0.16000
C1407       C  0.01513340  0.52441883  0.71890990    -0.31400
N1408       N  0.49828530  0.49950103  0.73753740     0.12800
C1409       C  0.48213673  0.98381320  0.71434187    -0.31400
C1410       C  0.07029339  0.99636622  0.64583561    -0.31700
N1411       N  0.06620990  0.96604241  0.63783567     0.13300
H1412       H  0.09155478  0.00587245  0.65599137     0.15900
C1413       C  0.03580441  0.96057405  0.63129715    -0.31700
H1414       H  0.02583480  0.93724469  0.62822399     0.15900
H1415       H  0.46481852  0.96519598  0.71976725     0.15900
H1416       H  0.48841551  0.59708705  0.65193378     0.16000
H1417       H  0.03035909  0.54173031  0.72930203     0.15900
C1418       C  0.01078469  0.51258221  0.86183267     0.29800
C1419       C  0.46666110  0.96025751  0.84803760     0.29800
C1420       C  0.47639594  0.50830103  0.87720688    -0.06400
C1421       C  0.00283312  0.50813518  0.82400131    -0.07200
C1422       C  0.01622551  0.97705527  0.87444393    -0.07100
C1423       C  0.45449681  0.48453527  0.86858419    -0.06400
C1424       C  0.48054379  0.97915980  0.81956778    -0.07200
C1425       C  0.99446441  0.95309499  0.86724683    -0.07100
C1426       C  0.42580905  0.49919062  0.86592449    -0.32400
N1427       N  0.42947339  0.52959374  0.87382209     0.14100
C1428       C  0.45971080  0.53525101  0.88079142    -0.32500
H1429       H  0.46949135  0.55869603  0.88360874     0.16000
C1430       C  0.47661311  0.97634849  0.78734607    -0.31400
N1431       N  0.49537769  0.99783631  0.77151236     0.12800
C1432       C  0.01074427  0.51837652  0.79213466    -0.31400
C1433       C  0.01059489  0.92551182  0.86722742    -0.31700
N1434       N  0.04068434  0.93208337  0.87383593     0.13300
H1435       H  0.00247322  0.90246985  0.86017086     0.15900
C1436       C  0.04505718  0.96323471  0.87709665    -0.31700
H1437       H  0.06783000  0.97479450  0.87952496     0.15900
H1438       H  0.02783088  0.53708490  0.78612874     0.15900
H1439       H  0.40489803  0.48962601  0.85515527     0.16000
H1440       H  0.46144060  0.95936448  0.77644019     0.15900
O1441       O  0.33715982  0.85263400  0.88056949    -0.85600
O1442       O  0.39270209  0.82241445  0.89389563    -0.82600
C1443       C  0.39499841  0.80815565  0.86832688     0.97900
O1444       O  0.40529109  0.82314627  0.84403411    -0.82600
O1445       O  0.41637123  0.87583549  0.80473828    -0.85300
C1446       C  0.39091130  0.88354574  0.79195578     1.02400
O1447       O  0.36800248  0.89303426  0.80809905    -0.78000
O1448       O  0.33076079  0.90047875  0.86119013    -0.78200
C1449       C  0.31915276  0.87409489  0.87113090     1.02400
O1450       O  0.35762672  0.90383165  0.91665455    -0.85500
O1451       O  0.41436566  0.87792132  0.92252840    -0.82600
C1452       C  0.44087487  0.86690607  0.91595915     0.97900
O1453       O  0.44570272  0.85310571  0.89023355    -0.82600
O1454       O  0.44986836  0.90566072  0.85370690    -0.85200
C1455       C  0.44288287  0.93271757  0.84345054     1.02400
O1456       O  0.41579678  0.93670637  0.83184815    -0.78100
O1457       O  0.38099652  0.93904034  0.88555068    -0.78200
C1458       C  0.36875731  0.93111392  0.91167660     1.02400
Cr1459     Cr  0.37659785  0.86511865  0.90071106     1.93700
Cr1460     Cr  0.42687538  0.86529501  0.84891250     1.93200
Cr1461     Cr  0.37491876  0.91479848  0.84768098     1.39100
O1462       O  0.39247105  0.88152074  0.86521891    -1.23300
O1463       O  0.38450473  0.60378348  0.82760038    -0.85600
O1464       O  0.37117245  0.65763873  0.85861227    -0.82600
C1465       C  0.36154429  0.67517185  0.88012904     0.97900
O1466       O  0.35133193  0.66306106  0.90611551    -0.82600
O1467       O  0.29930033  0.62541454  0.89647752    -0.85300
C1468       C  0.28321716  0.60186197  0.88886899     1.02400
O1469       O  0.29649014  0.57666750  0.88137380    -0.78000
O1470       O  0.33470098  0.58957456  0.82840271    -0.78200
C1471       C  0.35884540  0.60031033  0.81351178     1.02400
O1472       O  0.41383956  0.58027634  0.88224663    -0.85500
O1473       O  0.40746509  0.63601691  0.91002116    -0.82600
C1474       C  0.40163356  0.62504992  0.93727896     0.97900
O1475       O  0.37537542  0.61268476  0.94448326    -0.82600
O1476       O  0.32231913  0.57724994  0.94009492    -0.85200
C1477       C  0.33478520  0.55052954  0.93641518     1.02400
O1478       O  0.34620216  0.54395364  0.90978376    -0.78100
O1479       O  0.38181590  0.54953235  0.85655921    -0.78200
C1480       C  0.40727970  0.55394751  0.87088404     1.02400
Cr1481     Cr  0.39170918  0.61827848  0.87052895     1.93700
Cr1482     Cr  0.33810919  0.61864039  0.91934715     1.93200
Cr1483     Cr  0.34052905  0.56736084  0.86985721     1.39100
O1484       O  0.35642658  0.60169343  0.88642146    -1.23300
O1485       O  0.06026412  0.65037782  0.91526838    -0.85600
O1486       O  0.07179824  0.61599059  0.86529460    -0.82600
C1487       C  0.08364667  0.59573305  0.84793393     0.97900
O1488       O  0.08609616  0.56787496  0.85793490    -0.82600
O1489       O  0.13473083  0.57784635  0.89423718    -0.85300
C1490       C  0.15218073  0.58771535  0.91525830     1.02400
O1491       O  0.14181703  0.59225778  0.94258241    -0.78000
O1492       O  0.10730502  0.64205966  0.93271895    -0.78200
C1493       C  0.08795598  0.65990751  0.92015124     1.02400
O1494       O  0.01902227  0.60794001  0.94418694    -0.85500
O1495       O  0.02637910  0.56687931  0.88282731    -0.82600
C1496       C  0.03271580  0.53716393  0.88152402     0.97900
O1497       O  0.05525619  0.52740802  0.89926025    -0.82600
O1498       O  0.11540302  0.53228243  0.94152062    -0.85200
C1499       C  0.11628250  0.53805848  0.97118146     1.02400
O1500       O  0.09881006  0.56085748  0.98087297    -0.78100
O1501       O  0.05750008  0.62187625  0.97532306    -0.78200
C1502       C  0.02814396  0.62380736  0.96827583     1.02400
Cr1503     Cr  0.04659758  0.60707424  0.90394253     1.93700
Cr1504     Cr  0.09579141  0.55377268  0.90144234     1.93200
Cr1505     Cr  0.09811128  0.60234183  0.95535745     1.39100
O1506       O  0.07849339  0.58615863  0.92183574    -1.23300
O1507       O  0.17252722  0.89059859  0.90182872    -0.85600
O1508       O  0.14281898  0.87772693  0.84691589    -0.82600
C1509       C  0.12224516  0.86776805  0.82843068     0.97900
O1510       O  0.09494254  0.85920271  0.83904484    -0.82600
O1511       O  0.10153089  0.80626226  0.87538497    -0.85300
C1512       C  0.11098031  0.78955873  0.89777471     1.02400
O1513       O  0.11773763  0.80158731  0.92378412    -0.78000
O1514       O  0.17042298  0.84027363  0.91296484    -0.78200
C1515       C  0.18593773  0.86438608  0.90307624     1.02400
O1516       O  0.11675557  0.91932211  0.92361622    -0.85500
O1517       O  0.09117073  0.91433035  0.86646537    -0.82600
C1518       C  0.06362819  0.90901605  0.87685896     0.97900
O1519       O  0.05579392  0.88312853  0.88952918    -0.82600
O1520       O  0.05743924  0.82964650  0.92430346    -0.85200
C1521       C  0.06147904  0.84040043  0.95181603     1.02400
O1522       O  0.08864931  0.85004707  0.95901667    -0.78100
O1523       O  0.14133800  0.88612413  0.95445847    -0.78200
C1524       C  0.12707211  0.91177409  0.95021235     1.02400
Cr1525     Cr  0.12977986  0.89800774  0.88577394     1.93700
Cr1526     Cr  0.07978811  0.84552935  0.88318914     1.93200
Cr1527     Cr  0.12876717  0.84530848  0.93521680     1.39100
O1528       O  0.11281299  0.86257978  0.90122609    -1.23300
O1529       O  0.12658647  0.83946342  0.65212397    -0.85600
O1530       O  0.11243208  0.89340562  0.68294524    -0.83600
C1531       C  0.13878499  0.89487706  0.69589869     0.97900
O1532       O  0.16240447  0.90590002  0.68031536    -0.82600
O1533       O  0.19936383  0.91862258  0.62658559    -0.85300
C1534       C  0.21155345  0.89281135  0.61933094     1.02400
O1535       O  0.19501905  0.86992471  0.61083971    -0.78000
O1536       O  0.14289346  0.83274402  0.60351021    -0.78200
C1537       C  0.13527669  0.82142833  0.63063111     1.02400
O1538       O  0.08706004  0.85893546  0.60218772    -0.85500
O1539       O  0.08133399  0.91527401  0.62919338    -0.82600
C1540       C  0.08847057  0.94175436  0.63996074     0.97900
O1541       O  0.11459059  0.94646333  0.65310266    -0.82600
O1542       O  0.14908534  0.95231748  0.59918585    -0.85200
C1543       C  0.15924436  0.94554369  0.57209264     1.02400
O1544       O  0.17077876  0.91843236  0.56789726    -0.78100
O1545       O  0.11696544  0.88300061  0.56627577    -0.78200
C1546       C  0.09130723  0.86995078  0.57470754     1.02400
Cr1547     Cr  0.10428079  0.87780204  0.64056725     1.93700
Cr1548     Cr  0.15556228  0.92853881  0.63899744     1.93200
Cr1549     Cr  0.15550348  0.87712393  0.58947782     1.39100
O1550       O  0.13871771  0.89443771  0.62295529    -1.23300
O1551       O  0.38584646  0.85974435  0.57907971    -0.85600
O1552       O  0.35156404  0.91027599  0.56971077    -0.82600
C1553       C  0.34200362  0.91326184  0.59768318     0.97900
O1554       O  0.36007089  0.92399920  0.61769253    -0.82600
O1555       O  0.41049370  0.93355121  0.65162181    -0.85300
C1556       C  0.41417170  0.90565811  0.66146171     1.02400
O1557       O  0.42484885  0.88549526  0.64350339    -0.78000
O1558       O  0.43394882  0.85109993  0.59349397    -0.78200
C1559       C  0.40624579  0.84141406  0.58893179     1.02400
O1560       O  0.43428326  0.87772686  0.53454740    -0.85500
O1561       O  0.39413931  0.93964435  0.52900213    -0.82600
C1562       C  0.37705959  0.96272047  0.53862148     0.97900
O1563       O  0.37831824  0.96871890  0.56829514    -0.82600
O1564       O  0.43972204  0.97389741  0.60844397    -0.85200
C1565       C  0.46269090  0.96428565  0.62563901     1.02400
O1566       O  0.46903852  0.93461285  0.62435908    -0.78100
O1567       O  0.47401516  0.89309005  0.56336832    -0.78200
C1568       C  0.46387672  0.87568491  0.54083935     1.02400
Cr1569     Cr  0.39463653  0.89878654  0.55535750     1.93700
Cr1570     Cr  0.39902205  0.94775388  0.60836180     1.93200
Cr1571     Cr  0.44819538  0.89435385  0.60427285     1.39100
O1572       O  0.41559393  0.91520402  0.58770152    -1.23300
O1573       O  0.09598842  0.67839353  0.61440599    -0.85600
O1574       O  0.15243304  0.65070892  0.62725857    -0.82600
C1575       C  0.17115752  0.63044498  0.63767540     0.97900
O1576       O  0.16086361  0.60365578  0.64822698    -0.82600
O1577       O  0.12203398  0.60911568  0.70028333    -0.85300
C1578       C  0.09877708  0.61794141  0.71631426     1.02400
O1579       O  0.07288193  0.62388540  0.70352564    -0.78000
O1580       O  0.08457702  0.67651255  0.66453411    -0.78200
C1581       C  0.09560489  0.69160797  0.64062322     1.02400
O1582       O  0.07660701  0.62179813  0.58571425    -0.85500
O1583       O  0.13465674  0.59828601  0.59142529    -0.82600
C1584       C  0.12559620  0.57035406  0.59712696     0.97900
O1585       O  0.11312377  0.56236476  0.62307738    -0.82600
O1586       O  0.07597911  0.56340648  0.67487218    -0.85200
C1587       C  0.04880354  0.56677762  0.66294610     1.02400
O1588       O  0.04108562  0.59380923  0.65325053    -0.78100
O1589       O  0.04480821  0.64662887  0.61752300    -0.78200
C1590       C  0.04978682  0.63207115  0.59228468     1.02400
Cr1591     Cr  0.11377268  0.63632418  0.60724848     1.93700
Cr1592     Cr  0.11687054  0.58705492  0.66068408     1.93200
Cr1593     Cr  0.06322251  0.63451483  0.65895423     1.39100
O1594       O  0.09827280  0.61936747  0.64275265    -1.23300
O1595       O  0.34887487  0.62402974  0.66452380    -0.85600
O1596       O  0.31629740  0.61124941  0.61170641    -0.82600
C1597       C  0.30395350  0.63783247  0.60765253     0.97900
O1598       O  0.32007286  0.66065841  0.59559612    -0.82600
O1599       O  0.37422370  0.69721862  0.58213683    -0.85300
C1600       C  0.38159206  0.71036873  0.60738589     1.02400
O1601       O  0.38925903  0.69430641  0.63095545    -0.78000
O1602       O  0.39702118  0.64295017  0.66943897    -0.78200
C1603       C  0.37093046  0.63312920  0.68161901     1.02400
O1604       O  0.39909830  0.58534381  0.64356674    -0.85500
O1605       O  0.37038933  0.57923835  0.58817631    -0.82600
C1606       C  0.35988879  0.58612555  0.56152104     0.97900
O1607       O  0.34640639  0.61203796  0.55665660    -0.82600
O1608       O  0.40128221  0.64554320  0.55037447    -0.85200
C1609       C  0.42844050  0.65598028  0.55672518     1.02400
O1610       O  0.43250766  0.66865271  0.58326490    -0.78100
O1611       O  0.43488729  0.61643920  0.62065007    -0.78200
C1612       C  0.42697590  0.59071322  0.63383150     1.02400
Cr1613     Cr  0.35975904  0.60251031  0.62566747     1.93700
Cr1614     Cr  0.36133448  0.65308492  0.57363592     1.93200
Cr1615     Cr  0.41082597  0.65461512  0.62500494     1.39100
O1616       O  0.37719047  0.63701492  0.60835404    -1.23300
C1617       C  0.21604998  0.65208243  0.60499905    -0.09400
C1618       C  0.20544451  0.63651392  0.63307373     0.06800
C1619       C  0.22783622  0.62397156  0.65367794    -0.03100
C1620       C  0.25998977  0.62654438  0.64570839    -0.07600
C1621       C  0.27043854  0.64078279  0.61699099     0.06000
C1622       C  0.24816576  0.65365162  0.59654690    -0.02600
Br1623     Br  0.25988039  0.66891213  0.55494242    -0.02300
H1624       H  0.19912432  0.66102425  0.58837858     0.09900
H1625       H  0.27693322  0.61628586  0.66155334     0.07900
Br1626     Br  0.21587004  0.60247239  0.69252826    -0.02700
C1627       C  0.41374129  0.79219675  0.61886277    -0.09400
C1628       C  0.39766814  0.80851421  0.59529346     0.06800
C1629       C  0.37373455  0.79311283  0.57853821    -0.03100
C1630       C  0.36699236  0.76152767  0.58513313    -0.07600
C1631       C  0.38419491  0.74468391  0.60753761     0.06000
C1632       C  0.40723803  0.76047176  0.62526133    -0.02600
Br1633     Br  0.43279884  0.74036258  0.65652221    -0.02300
H1634       H  0.43190506  0.80405430  0.63203609     0.09900
H1635       H  0.34934180  0.74959960  0.57134262     0.07900
Br1636     Br  0.35159149  0.81229163  0.54412133    -0.02700
C1637       C  0.13010893  0.73372809  0.61707569    -0.09400
C1638       C  0.10904910  0.72399124  0.64168935     0.06800
C1639       C  0.10138068  0.74561703  0.66512568    -0.03100
C1640       C  0.11298329  0.77655638  0.66245474    -0.07600
C1641       C  0.13144658  0.78703755  0.63618235     0.06000
C1642       C  0.14113965  0.76482490  0.61395063    -0.02600
Br1643     Br  0.16850803  0.77491509  0.57829430    -0.02300
H1644       H  0.13744902  0.71721346  0.59938322     0.09900
H1645       H  0.10541824  0.79305036  0.68006586     0.07900
Br1646     Br  0.07250581  0.73631601  0.69933435    -0.02700
C1647       C  0.26274022  0.90805496  0.63967976    -0.09400
C1648       C  0.24558500  0.89116962  0.61771245     0.06800
C1649       C  0.26091609  0.87849994  0.59132780    -0.03100
C1650       C  0.29274114  0.88511383  0.58610693    -0.07600
C1651       C  0.30954684  0.90430674  0.60664369     0.06000
C1652       C  0.29457815  0.91479016  0.63449865    -0.02600
Br1653     Br  0.31428777  0.94064652  0.66533266    -0.02300
H1654       H  0.25082943  0.91766775  0.66006267     0.09900
H1655       H  0.30405021  0.87617803  0.56509851     0.07900
Br1656     Br  0.23938332  0.85558282  0.55933572    -0.02700
C1657       C  0.15602613  0.88798028  0.78326090    -0.09400
C1658       C  0.12953341  0.86969760  0.79407530     0.06800
C1659       C  0.10972137  0.85611484  0.77162261    -0.03100
C1660       C  0.11507548  0.86311854  0.73976639    -0.07600
C1661       C  0.13961960  0.88387151  0.72918860     0.06000
C1662       C  0.16126845  0.89505857  0.75115917    -0.02600
Br1663     Br  0.19704679  0.92148038  0.73937061    -0.02300
H1664       H  0.17211416  0.89814916  0.79991535     0.09900
H1665       H  0.09894782  0.85298682  0.72309682     0.07900
Br1666     Br  0.07455373  0.82825690  0.78205109    -0.02700
C1667       C  0.11677934  0.59240893  0.76490571    -0.09400
C1668       C  0.10053538  0.61721863  0.75063874     0.06800
C1669       C  0.08291967  0.63763919  0.76942757    -0.03100
C1670       C  0.07924905  0.63118481  0.80151998    -0.07600
C1671       C  0.09265599  0.60432717  0.81528339     0.06000
C1672       C  0.11304570  0.58576622  0.79699982    -0.02600
Br1673     Br  0.13635616  0.55095248  0.81367923    -0.02300
H1674       H  0.13095640  0.57686844  0.75074942     0.09900
H1675       H  0.06452281  0.64646421  0.81539866     0.07900
Br1676     Br  0.06289543  0.67428121  0.75286293    -0.02700
C1677       C  0.08254667  0.70689516  0.88568441    -0.09400
C1678       C  0.09788961  0.69198084  0.91075138     0.06800
C1679       C  0.12226769  0.70810782  0.92623973    -0.03100
C1680       C  0.12949962  0.73912011  0.91760275    -0.07600
C1681       C  0.11123770  0.75528772  0.89562621     0.06000
C1682       C  0.08861747  0.73857980  0.87821497    -0.02600
Br1683     Br  0.06209897  0.75781525  0.84722925    -0.02300
H1684       H  0.06450476  0.69433624  0.87295495     0.09900
H1685       H  0.14721967  0.75169198  0.93076611     0.07900
Br1686     Br  0.14310501  0.69183284  0.96282457    -0.02700
C1687       C  0.33753435  0.62730989  0.73049410    -0.09400
C1688       C  0.36771399  0.62763707  0.71585172     0.06800
C1689       C  0.39381409  0.61778708  0.73333279    -0.03100
C1690       C  0.38941294  0.60794621  0.76440972    -0.07600
C1691       C  0.35956949  0.60795111  0.77943906     0.06000
C1692       C  0.33328529  0.61781982  0.76220509    -0.02600
Br1693     Br  0.29165210  0.61992076  0.78060630    -0.02300
H1694       H  0.31716865  0.63429909  0.71716288     0.09900
H1695       H  0.40994437  0.60003291  0.77696274     0.07900
Br1696     Br  0.43610213  0.61433927  0.71641599    -0.02700
C1697       C  0.23293265  0.57348733  0.88442107    -0.09400
C1698       C  0.24884015  0.60150959  0.89234484     0.06800
C1699       C  0.23209989  0.62556630  0.90771674    -0.03100
C1700       C  0.20021347  0.62072647  0.91506296    -0.07600
C1701       C  0.18517992  0.59230158  0.90780718     0.06000
C1702       C  0.20157954  0.56848672  0.89262788    -0.02600
Br1703     Br  0.18325364  0.52742573  0.88554564    -0.02300
H1704       H  0.24522487  0.55442976  0.87322332     0.09900
H1705       H  0.18716169  0.63901244  0.92673026     0.07900
Br1706     Br  0.25074261  0.66464301  0.92112950    -0.02700
C1707       C  0.41052511  0.86450191  0.74130304    -0.09400
C1708       C  0.39008616  0.88439700  0.75755588     0.06800
C1709       C  0.37509506  0.90893697  0.74103015    -0.03100
C1710       C  0.38327578  0.91500413  0.70964628    -0.07600
C1711       C  0.40547739  0.89665655  0.69398276     0.06000
C1712       C  0.41850132  0.87040411  0.70977863    -0.02600
Br1713     Br  0.44996552  0.84374913  0.69159186    -0.02300
H1714       H  0.42206007  0.84548068  0.75378567     0.09900
H1715       H  0.37299172  0.93502637  0.69773560     0.07900
Br1716     Br  0.34597585  0.93744663  0.76000801    -0.02700
C1717       C  0.23075297  0.88832366  0.87250879    -0.09400
C1718       C  0.21950547  0.86364189  0.89270363     0.06800
C1719       C  0.24088564  0.84094841  0.90335182    -0.03100
C1720       C  0.27286486  0.84390710  0.89445786    -0.07600
C1721       C  0.28442292  0.86959932  0.87551330     0.06000
C1722       C  0.26266081  0.89194292  0.86441286    -0.02600
Br1723     Br  0.27408562  0.92917674  0.83963475    -0.02300
H1724       H  0.21465794  0.90583871  0.86363371     0.09900
H1725       H  0.28899720  0.82669279  0.90379296     0.07900
Br1726     Br  0.22866036  0.80709910  0.93212510    -0.02700
C1727       C  0.37795380  0.72226159  0.84690795    -0.09400
C1728       C  0.36621021  0.70982170  0.87609021     0.06800
C1729       C  0.36325320  0.73036296  0.90161144    -0.03100
C1730       C  0.37280215  0.76175232  0.89780046    -0.07600
C1731       C  0.38547490  0.77416927  0.86905011     0.06000
C1732       C  0.38762840  0.75399222  0.84317797    -0.02600
Br1733     Br  0.40423509  0.76744030  0.80257167    -0.02300
H1734       H  0.38053748  0.70701661  0.82693339     0.09900
H1735       H  0.37036244  0.77652642  0.91813999     0.07900
Br1736     Br  0.34772883  0.71806793  0.94314667    -0.02700
C1737       C  0.95614845  0.15779377  0.03463797     0.29800
C1738       C  0.50694245  0.13761691  0.49138607     0.29800
C1739       C  0.95122237  0.13954049  0.50555367    -0.06400
C1740       C  0.97452692  0.18648623  0.02028465    -0.07200
C1741       C  0.48367756  0.13199080  0.04630143    -0.07100
C1742       C  0.97512876  0.13220514  0.48371950    -0.06400
C1743       C  0.50272537  0.17554055  0.49845929    -0.07200
C1744       C  0.50740445  0.12405561  0.02405624    -0.07100
C1745       C  0.96073699  0.12860232  0.45530797    -0.32400
N1746       N  0.92952750  0.13162427  0.46021036     0.14100
C1747       C  0.92338308  0.13898349  0.49004216    -0.32500
H1748       H  0.90041497  0.14626211  0.49828709     0.16000
C1749       C  0.51318476  0.20709090  0.48976559    -0.31400
N1750       N  0.99236995  0.23452472  0.00412141     0.12800
C1751       C  0.97111310  0.21883738  0.02331229    -0.31400
C1752       C  0.53443931  0.12012053  0.04067622    -0.31700
N1753       N  0.52852580  0.12600124  0.07112655     0.13300
H1754       H  0.55798240  0.11786017  0.03088751     0.15900
C1755       C  0.49804276  0.13352450  0.07499515    -0.31700
H1756       H  0.48825612  0.14357486  0.09615350     0.15900
H1757       H  0.95394597  0.22993633  0.03825641     0.15900
H1758       H  0.97186797  0.12572361  0.43243562     0.16000
H1759       H  0.53174190  0.21260034  0.47241272     0.15900
C1760       C  0.53619657  0.34149034  0.47625398     0.29800
C1761       C  0.98688182  0.36100276  0.01619618     0.29800
C1762       C  0.01105955  0.36613356  0.46160750    -0.06400
C1763       C  0.51779032  0.31256522  0.48991058    -0.07200
C1764       C  0.54420814  0.35836777  0.00318716    -0.07100
C1765       C  0.98548339  0.37536547  0.98267169    -0.06400
C1766       C  0.99024684  0.32324857  0.00847322    -0.07200
C1767       C  0.02079499  0.36878373  0.02478941    -0.07100
C1768       C  0.96071370  0.37961763  0.46653573    -0.32400
N1769       N  0.96669211  0.37358835  0.43619595     0.14100
C1770       C  0.99691194  0.36493519  0.43270673    -0.32500
H1771       H  0.00643258  0.35431177  0.41174043     0.16000
C1772       C  0.97908321  0.29197685  0.01716937    -0.31400
N1773       N  0.99555683  0.26871709  0.00115469     0.12800
C1774       C  0.52102175  0.28038743  0.48566986    -0.31400
C1775       C  0.53348787  0.36755008  0.05383101    -0.31700
N1776       N  0.56469669  0.36359178  0.05017705     0.13300
H1777       H  0.52158998  0.36991828  0.07640126     0.15900
C1778       C  0.57149783  0.35726884  0.02005399    -0.31700
H1779       H  0.59451936  0.34979307  0.01218288     0.15900
H1780       H  0.53837439  0.26970335  0.47060292     0.15900
H1781       H  0.93717625  0.38263068  0.47603003     0.16000
H1782       H  0.96062407  0.28687474  0.03472747     0.15900
C1783       C  0.63854435  0.01113371  0.49681440     0.29800
C1784       C  0.65093809  0.46685151  0.04471746     0.29800
C1785       C  0.62246077  0.47791431  0.49465779    -0.06400
C1786       C  0.67645669  0.00395856  0.50147020    -0.07200
C1787       C  0.62708056  0.01828713  0.03072069    -0.07100
C1788       C  0.63132219  0.45582447  0.51809667    -0.06400
C1789       C  0.67936506  0.48004147  0.02518427    -0.07200
C1790       C  0.63483581  0.99635956  0.05445071    -0.07100
C1791       C  0.63342740  0.42723907  0.50352068    -0.32400
N1792       N  0.62521771  0.43115900  0.47329975     0.14100
C1793       C  0.61799917  0.46135914  0.46782129    -0.32500
H1794       H  0.61487424  0.47118547  0.44443237     0.16000
C1795       C  0.71171232  0.47599806  0.02762688    -0.31400
N1796       N  0.72729136  0.49460246  0.00578294     0.12800
C1797       C  0.70804471  0.01304784  0.49149509    -0.31400
C1798       C  0.63504709  0.01223752  0.08218830    -0.31700
N1799       N  0.62788770  0.04231739  0.07609522     0.13300
H1800       H  0.64276722  0.00396852  0.10497648     0.15900
C1801       C  0.62415124  0.04692598  0.04496957    -0.31700
H1802       H  0.62129965  0.06978263  0.03363246     0.15900
H1803       H  0.71355028  0.03071868  0.47319072     0.15900
H1804       H  0.64457715  0.40634558  0.51279386     0.16000
H1805       H  0.72290333  0.46096280  0.04469855     0.15900
C1806       C  0.85415803  0.48448572  0.01291290     0.29800
C1807       C  0.84220316  0.02894037  0.46961578     0.29800
C1808       C  0.86358189  0.47662854  0.97916839    -0.06400
C1809       C  0.81614203  0.49072928  0.00837981    -0.07200
C1810       C  0.86945809  0.02152782  0.01592471    -0.07100
C1811       C  0.85662603  0.50094859  0.45404706    -0.06400
C1812       C  0.81353849  0.01568296  0.48871428    -0.07200
C1813       C  0.86061285  0.04394102  0.99271146    -0.07100
C1814       C  0.85504955  0.48461183  0.42650783    -0.32400
N1815       N  0.86142713  0.45426033  0.43278347     0.14100
C1816       C  0.86581090  0.44998517  0.46376890    -0.32500
H1817       H  0.86845183  0.42717918  0.47528058     0.16000
C1818       C  0.78125748  0.01927728  0.48527871    -0.31400
N1819       N  0.76294873  0.00109948  0.00413977     0.12800
C1820       C  0.78483368  0.48152827  0.01906962    -0.31400
C1821       C  0.85895460  0.07251332  0.00747795    -0.31700
N1822       N  0.86748800  0.06829533  0.03757996     0.13300
H1823       H  0.84817162  0.09368718  0.99837078     0.15900
C1824       C  0.87432101  0.03787640  0.04276912    -0.31700
H1825       H  0.87768151  0.02776483  0.06599873     0.15900
H1826       H  0.77978399  0.46421301  0.03781785     0.15900
H1827       H  0.84747891  0.49311956  0.40374328     0.16000
H1828       H  0.77040853  0.03426189  0.46792409     0.15900
C1829       C  0.98102566  0.49161355  0.14419281     0.29800
C1830       C  0.52540306  0.03468700  0.16177431     0.29800
C1831       C  0.97539581  0.02402285  0.13743036    -0.06400
C1832       C  0.98760229  0.49650989  0.18212033    -0.07200
C1833       C  0.01505170  0.48920293  0.13147380    -0.07100
C1834       C  0.99724026  0.04782534  0.14481142    -0.06400
C1835       C  0.51195224  0.01622201  0.19075935    -0.07200
C1836       C  0.53892570  0.50995701  0.13841829    -0.07100
C1837       C  0.98173817  0.07571284  0.14288915    -0.32400
N1838       N  0.95196603  0.06930707  0.13512427     0.14100
C1839       C  0.94707116  0.03815799  0.13292115    -0.32500
H1840       H  0.92414621  0.02696910  0.13032543     0.16000
C1841       C  0.51668542  0.01933084  0.22284535    -0.31400
N1842       N  0.99812189  0.00084976  0.23907340     0.12800
C1843       C  0.97873036  0.48618813  0.21366092    -0.31400
C1844       C  0.56751419  0.49517451  0.14108940    -0.31700
N1845       N  0.56368544  0.46488467  0.13297881     0.13300
H1846       H  0.58823218  0.50439933  0.15246649     0.15900
C1847       C  0.53354853  0.45954065  0.12537242    -0.31700
H1848       H  0.52352294  0.43621934  0.12228359     0.15900
H1849       H  0.96142996  0.46753237  0.21913312     0.15900
H1850       H  0.98967548  0.09889585  0.14964149     0.16000
H1851       H  0.53198514  0.03650169  0.23329531     0.15900
C1852       C  0.51135107  0.00618896  0.36549645     0.29800
C1853       C  0.96481380  0.46211159  0.34741190     0.29800
C1854       C  0.98011440  0.01107098  0.37960628    -0.06400
C1855       C  0.50440260  0.00130318  0.32771252    -0.07200
C1856       C  0.51919139  0.47347914  0.37195553    -0.07100
C1857       C  0.95791394  0.98724207  0.37224440    -0.06400
C1858       C  0.97839759  0.48103203  0.31889830    -0.07200
C1859       C  0.49718966  0.44978209  0.36524535    -0.07100
C1860       C  0.92893619  0.00124062  0.37181158    -0.32400
N1861       N  0.93277319  0.03161181  0.37944470     0.14100
C1862       C  0.96340373  0.03782948  0.38432721    -0.32500
H1863       H  0.97310597  0.06143339  0.38626458     0.16000
C1864       C  0.97407874  0.47830018  0.28674108    -0.31400
N1865       N  0.99245929  0.50001286  0.27081622     0.12800
C1866       C  0.51322235  0.01144791  0.29612526    -0.31400
C1867       C  0.51266071  0.42161203  0.36706307    -0.31700
N1868       N  0.54281919  0.42757378  0.37404629     0.13300
H1869       H  0.50418148  0.39846256  0.36075934     0.15900
C1870       C  0.54770526  0.45891986  0.37588937    -0.31700
H1871       H  0.57068593  0.47012011  0.37805940     0.15900
H1872       H  0.53070908  0.02987664  0.29046808     0.15900
H1873       H  0.90746921  0.99145120  0.36235952     0.16000
H1874       H  0.95889518  0.46123236  0.27592722     0.15900
O1875       O  0.83965505  0.34980786  0.38046885    -0.85600
O1876       O  0.89665577  0.32322256  0.39393822    -0.82600
C1877       C  0.89868298  0.30867877  0.36849603     0.97900
O1878       O  0.90740831  0.32372024  0.34367971    -0.82600
O1879       O  0.91699750  0.37637119  0.30346681    -0.85300
C1880       C  0.89130523  0.38392636  0.29119082     1.02400
O1881       O  0.86797920  0.39171247  0.30753247    -0.78000
O1882       O  0.83037965  0.39676187  0.35990474    -0.78200
C1883       C  0.82052600  0.36970154  0.37001050     1.02400
O1884       O  0.85666811  0.40309486  0.41568834    -0.85500
O1885       O  0.91562991  0.38051091  0.42090088    -0.82600
C1886       C  0.94243093  0.37011794  0.41413626     0.97900
O1887       O  0.94721551  0.35543628  0.38894864    -0.82600
O1888       O  0.94963888  0.40723985  0.35214204    -0.85200
C1889       C  0.94153911  0.43419484  0.34272189     1.02400
O1890       O  0.91406546  0.43762304  0.33171141    -0.78100
O1891       O  0.87786842  0.43901717  0.38395447    -0.78200
C1892       C  0.86524397  0.43116013  0.40982309     1.02400
Cr1893     Cr  0.87820805  0.36513948  0.40017925     1.93700
Cr1894     Cr  0.92778820  0.36639947  0.34777236     1.93200
Cr1895     Cr  0.87377153  0.41383240  0.34672910     1.39100
O1896       O  0.89297026  0.38167692  0.36437695    -1.23300
O1897       O  0.88776307  0.10232655  0.33056776    -0.85600
O1898       O  0.87321408  0.15787783  0.35932373    -0.82600
C1899       C  0.86458917  0.17595363  0.38086637     0.97900
O1900       O  0.85483575  0.16444669  0.40731309    -0.82600
O1901       O  0.80234388  0.12703354  0.40203747    -0.85300
C1902       C  0.78632491  0.10363073  0.39390759     1.02400
O1903       O  0.79899592  0.07842179  0.38539138    -0.78000
O1904       O  0.83791658  0.08875741  0.33183621    -0.78200
C1905       C  0.86228809  0.09829213  0.31643067     1.02400
O1906       O  0.91682048  0.08228547  0.38628651    -0.85500
O1907       O  0.91033672  0.13938068  0.41059317    -0.82600
C1908       C  0.90595079  0.12837349  0.43794634     0.97900
O1909       O  0.88045532  0.11506704  0.44619789    -0.82600
O1910       O  0.82684059  0.07997336  0.44567725    -0.85200
C1911       C  0.83812553  0.05273991  0.44192411     1.02400
O1912       O  0.84858314  0.04567264  0.41506800    -0.78100
O1913       O  0.88461225  0.05005351  0.36244521    -0.78200
C1914       C  0.91021714  0.05543085  0.37628746     1.02400
Cr1915     Cr  0.89435009  0.11927992  0.37264535     1.93700
Cr1916     Cr  0.84212415  0.12062037  0.42284772     1.93200
Cr1917     Cr  0.84318266  0.06818758  0.37442232     1.39100
O1918       O  0.85924647  0.10301042  0.38966500    -1.23300
O1919       O  0.56205146  0.14405279  0.41654558    -0.85600
O1920       O  0.57256380  0.10951831  0.36600231    -0.82600
C1921       C  0.58386921  0.08884683  0.34878860     0.97900
O1922       O  0.58749931  0.06146829  0.35959801    -0.82600
O1923       O  0.63767731  0.07164211  0.39463180    -0.85300
C1924       C  0.65511500  0.08276138  0.41512374     1.02400
O1925       O  0.64453199  0.08638858  0.44257985    -0.78000
O1926       O  0.60978280  0.13627238  0.43204977    -0.78200
C1927       C  0.58942766  0.15433276  0.42171638     1.02400
O1928       O  0.52182656  0.10149456  0.44587545    -0.85500
O1929       O  0.52806368  0.06041183  0.38518164    -0.82600
C1930       C  0.53420535  0.03070051  0.38429350     0.97900
O1931       O  0.55737251  0.02119425  0.40142525    -0.82600
O1932       O  0.61823840  0.02713153  0.44289192    -0.85200
C1933       C  0.61924299  0.03342985  0.47241350     1.02400
O1934       O  0.60174738  0.05626515  0.48184879    -0.78100
O1935       O  0.56076102  0.11712946  0.47559351    -0.78200
C1936       C  0.53126406  0.11847055  0.46902118     1.02400
Cr1937     Cr  0.54853513  0.10074355  0.40534151     1.93700
Cr1938     Cr  0.59822430  0.04773947  0.40272397     1.93200
Cr1939     Cr  0.60103533  0.09705161  0.45556535     1.39100
O1940       O  0.58100965  0.08029347  0.42274658    -1.23300
O1941       O  0.67552406  0.38619725  0.40058861    -0.85600
O1942       O  0.64477222  0.37152478  0.34649014    -0.82600
C1943       C  0.62355514  0.36112301  0.32891524     0.97900
O1944       O  0.59692599  0.35237954  0.34073221    -0.82600
O1945       O  0.60559919  0.30123642  0.37974508    -0.85300
C1946       C  0.61322371  0.28558053  0.40369529     1.02400
O1947       O  0.62044673  0.29869933  0.42890600    -0.78000
O1948       O  0.67334569  0.33666594  0.41585062    -0.78200
C1949       C  0.68874105  0.35997100  0.40387974     1.02400
O1950       O  0.61988911  0.41631658  0.42201476    -0.85500
O1951       O  0.59318495  0.40899575  0.36604283    -0.82600
C1952       C  0.56570212  0.40403231  0.37694233     0.97900
O1953       O  0.55794234  0.37810368  0.38984118    -0.82600
O1954       O  0.56105600  0.32524647  0.42632969    -0.85200
C1955       C  0.56432697  0.33767296  0.45300904     1.02400
O1956       O  0.59097162  0.34917801  0.45983305    -0.78100
O1957       O  0.64465612  0.38448593  0.45390860    -0.78200
C1958       C  0.62989279  0.40958668  0.44889612     1.02400
Cr1959     Cr  0.63241261  0.39328027  0.38500095     1.93700
Cr1960     Cr  0.58281775  0.34030364  0.38516652     1.93200
Cr1961     Cr  0.63159314  0.34302349  0.43726331     1.39100
O1962       O  0.61576262  0.35847895  0.40225363    -1.23300
O1963       O  0.62003842  0.33725164  0.15264764    -0.85600
O1964       O  0.60699176  0.39151470  0.18280581    -0.83600
C1965       C  0.63332133  0.39233683  0.19606271     0.97900
O1966       O  0.65722270  0.40283630  0.18058148    -0.82600
O1967       O  0.69556799  0.41547822  0.12756601    -0.85300
C1968       C  0.70779265  0.39012343  0.11895319     1.02400
O1969       O  0.69126899  0.36706384  0.11079714    -0.78000
O1970       O  0.63852469  0.32954885  0.10472191    -0.78200
C1971       C  0.62925240  0.31886116  0.13176352     1.02400
O1972       O  0.58240422  0.35673081  0.10116173    -0.85500
O1973       O  0.57772013  0.41350967  0.12715338    -0.82600
C1974       C  0.58505344  0.44007648  0.13743891     0.97900
O1975       O  0.61036806  0.44422684  0.15221583    -0.82600
O1976       O  0.64613883  0.44984320  0.09942925    -0.85200
C1977       C  0.65560714  0.44280518  0.07217585     1.02400
O1978       O  0.66651890  0.41540726  0.06778549    -0.78100
O1979       O  0.61352084  0.37980413  0.06578729    -0.78200
C1980       C  0.58769722  0.36687614  0.07345913     1.02400
Cr1981     Cr  0.59928155  0.37585154  0.13993709     1.93700
Cr1982     Cr  0.65151651  0.42571022  0.13924364     1.93200
Cr1983     Cr  0.65150778  0.37401363  0.08973071     1.39100
O1984       O  0.63453094  0.39167817  0.12296966    -1.23300
O1985       O  0.88514979  0.35977378  0.07725363    -0.85600
O1986       O  0.84883065  0.40886472  0.06705620    -0.82600
C1987       C  0.83846470  0.41219698  0.09465100     0.97900
O1988       O  0.85578259  0.42408761  0.11480458    -0.82600
O1989       O  0.90565305  0.43473241  0.14980266    -0.85300
C1990       C  0.91008979  0.40719006  0.16009772     1.02400
O1991       O  0.92262924  0.38738463  0.14275449    -0.78000
O1992       O  0.93333262  0.35323004  0.09203261    -0.78200
C1993       C  0.90591692  0.34243610  0.08813460     1.02400
O1994       O  0.93290566  0.38028994  0.03272179    -0.85500
O1995       O  0.89123005  0.43999090  0.02765941    -0.82600
C1996       C  0.87356750  0.46255901  0.03721335     0.97900
O1997       O  0.87452099  0.46892477  0.06670218    -0.82600
O1998       O  0.93512228  0.47608618  0.10822585    -0.85200
C1999       C  0.95864157  0.46689831  0.12502938     1.02400
O2000       O  0.96559161  0.43743724  0.12340040    -0.78100
O2001       O  0.97187090  0.39683603  0.06196204    -0.78200
C2002       C  0.96250504  0.37973378  0.03883911     1.02400
Cr2003     Cr  0.89260521  0.39927780  0.05365066     1.93700
Cr2004     Cr  0.89482841  0.44862262  0.10671630     1.93200
Cr2005     Cr  0.94587366  0.39685013  0.10309247     1.39100
O2006       O  0.91259639  0.41648328  0.08633506    -1.23300
O2007       O  0.60071028  0.17444254  0.11731522    -0.85600
O2008       O  0.65526734  0.14418633  0.13118059    -0.82600
C2009       C  0.67296440  0.12285467  0.14120597     0.97900
O2010       O  0.66120342  0.09652725  0.15087029    -0.82600
O2011       O  0.62295420  0.10461922  0.20184909    -0.85300
C2012       C  0.59963064  0.11333094  0.21774039     1.02400
O2013       O  0.57368940  0.11926223  0.20509772    -0.78000
O2014       O  0.58548539  0.17184640  0.16681626    -0.78200
C2015       C  0.59726369  0.18733958  0.14353495     1.02400
O2016       O  0.57939918  0.11914504  0.08703027    -0.85500
O2017       O  0.63564141  0.09266845  0.09418595    -0.82600
C2018       C  0.62520475  0.06509068  0.09947262     0.97900
O2019       O  0.61264775  0.05713790  0.12546041    -0.82600
O2020       O  0.57602466  0.05934448  0.17807589    -0.85200
C2021       C  0.54911942  0.06264225  0.16573635     1.02400
O2022       O  0.54217460  0.08939544  0.15459570    -0.78100
O2023       O  0.54713862  0.14301867  0.11912127    -0.78200
C2024       C  0.55251612  0.12929726  0.09353522     1.02400
Cr2025     Cr  0.61650030  0.13161048  0.11000316     1.93700
Cr2026     Cr  0.61711685  0.08182718  0.16306611     1.93200
Cr2027     Cr  0.56449560  0.13005916  0.16060630     1.39100
O2028       O  0.59958963  0.11463587  0.14489232    -1.23300
O2029       O  0.85189501  0.12345637  0.16645579    -0.85600
O2030       O  0.82029262  0.11069441  0.11194796    -0.82600
C2031       C  0.80611569  0.13642913  0.11089680     0.97900
O2032       O  0.82089983  0.16090975  0.10076206    -0.82600
O2033       O  0.87364392  0.19988333  0.08851150    -0.85300
C2034       C  0.88324381  0.21214050  0.11349105     1.02400
O2035       O  0.89277875  0.19558824  0.13605585    -0.78000
O2036       O  0.90042696  0.14155527  0.17168936    -0.78200
C2037       C  0.87434888  0.13129968  0.18383160     1.02400
O2038       O  0.90221256  0.08724700  0.14448672    -0.85500
O2039       O  0.87503145  0.08234439  0.08863679    -0.82600
C2040       C  0.86407008  0.08978106  0.06234473     0.97900
O2041       O  0.84939458  0.11525605  0.05844411    -0.82600
O2042       O  0.90169393  0.15165236  0.05245970    -0.85200
C2043       C  0.92890128  0.16188501  0.05885734     1.02400
O2044       O  0.93358791  0.17276089  0.08604307    -0.78100
O2045       O  0.93641224  0.11800230  0.11920126    -0.78200
C2046       C  0.92909284  0.09229286  0.13252122     1.02400
Cr2047     Cr  0.86317940  0.10355318  0.12678366     1.93700
Cr2048     Cr  0.86217436  0.15619996  0.07737990     1.93200
Cr2049     Cr  0.91332489  0.15594566  0.12733532     1.39100
O2050       O  0.87931961  0.13915926  0.11084312    -1.23300
C2051       C  0.72029882  0.15741231  0.12905088    -0.09400
C2052       C  0.70762264  0.12735998  0.13788145     0.06800
C2053       C  0.72809488  0.10150015  0.13921984    -0.03100
C2054       C  0.75980208  0.10601992  0.13149709    -0.07600
C2055       C  0.77234861  0.13552540  0.12098542     0.06000
C2056       C  0.75226142  0.16165020  0.12033380    -0.02600
Br2057     Br  0.76626010  0.20316058  0.10667034    -0.02300
H2058       H  0.70503643  0.17759727  0.12769448     0.09900
H2059       H  0.77451409  0.08542403  0.13266215     0.07900
Br2060     Br  0.71510581  0.05827787  0.14799165    -0.02700
C2061       C  0.92030277  0.29245006  0.11424748    -0.09400
C2062       C  0.89829123  0.30948191  0.09672745     0.06800
C2063       C  0.86948895  0.29469588  0.08858603    -0.03100
C2064       C  0.86379941  0.26342415  0.09747038    -0.07600
C2065       C  0.88629339  0.24625597  0.11384959     0.06000
C2066       C  0.91445265  0.26115459  0.12319863    -0.02600
Br2067     Br  0.94719799  0.23984195  0.14554159    -0.02300
H2068       H  0.94243006  0.30338883  0.12088158     0.09900
H2069       H  0.84234463  0.25179585  0.08986697     0.07900
Br2070     Br  0.83766313  0.31386046  0.06314974    -0.02700
C2071       C  0.63491434  0.23001334  0.12823045    -0.09400
C2072       C  0.60750129  0.22049079  0.14543791     0.06800
C2073       C  0.58919757  0.24326584  0.16030797    -0.03100
C2074       C  0.59803167  0.27506354  0.15690448    -0.07600
C2075       C  0.62441568  0.28477982  0.13806368     0.06000
C2076       C  0.64323421  0.26183102  0.12403216    -0.02600
Br2077     Br  0.67999768  0.27224195  0.09846827    -0.02300
H2078       H  0.64932552  0.21257251  0.11684139     0.09900
H2079       H  0.58292946  0.29243282  0.16747216     0.07900
Br2080     Br  0.54995762  0.23293080  0.18184929    -0.02700
C2081       C  0.76067555  0.39935577  0.13898673    -0.09400
C2082       C  0.74166361  0.38942200  0.11457262     0.06800
C2083       C  0.75477140  0.38445881  0.08448925    -0.03100
C2084       C  0.78655867  0.39131411  0.07882155    -0.07600
C2085       C  0.80569082  0.40283469  0.10283908     0.06000
C2086       C  0.79267465  0.40558223  0.13365400    -0.02600
Br2087     Br  0.81607651  0.41804555  0.16980786    -0.02300
H2088       H  0.75032315  0.40313436  0.16212002     0.09900
H2089       H  0.79599312  0.38855300  0.05516660     0.07900
Br2090     Br  0.72979810  0.37180720  0.04940999    -0.02700
C2091       C  0.65596595  0.37918274  0.28200414    -0.09400
C2092       C  0.62865443  0.36326165  0.29417702     0.06800
C2093       C  0.60527930  0.35381529  0.27289241    -0.03100
C2094       C  0.60853486  0.36244804  0.24110025    -0.07600
C2095       C  0.63438432  0.38089228  0.22940548     0.06000
C2096       C  0.65889629  0.38828280  0.25011651    -0.02600
Br2097     Br  0.69560131  0.41297047  0.23749035    -0.02300
H2098       H  0.67449774  0.38637435  0.29767039     0.09900
H2099       H  0.58988781  0.35536551  0.22551004     0.07900
Br2100     Br  0.56738026  0.33040131  0.28493456    -0.02700
C2101       C  0.60977416  0.08142952  0.26388025    -0.09400
C2102       C  0.60092309  0.11065425  0.25161009     0.06800
C2103       C  0.58889245  0.13372255  0.27137379    -0.03100
C2104       C  0.58495429  0.12668466  0.30342237    -0.07600
C2105       C  0.59164231  0.09635370  0.31560891     0.06000
C2106       C  0.60461786  0.07366159  0.29536614    -0.02600
Br2107     Br  0.61362403  0.03062711  0.30705347    -0.02300
H2108       H  0.61848424  0.06348180  0.24829671     0.09900
H2109       H  0.57538274  0.14457766  0.31850205     0.07900
Br2110     Br  0.57705331  0.17450792  0.25545014    -0.02700
C2111       C  0.57457886  0.20643354  0.40137812    -0.09400
C2112       C  0.59731471  0.18768859  0.41585442     0.06800
C2113       C  0.62633417  0.20158951  0.42495047    -0.03100
C2114       C  0.63216667  0.23342193  0.41838257    -0.07600
C2115       C  0.60920123  0.25179530  0.40419660     0.06000
C2116       C  0.57994374  0.23842186  0.39631773    -0.02600
Br2117     Br  0.54471250  0.26318691  0.38326285    -0.02300
H2118       H  0.55185323  0.19654867  0.39513140     0.09900
H2119       H  0.65405328  0.24429928  0.42585203     0.07900
Br2120     Br  0.65793409  0.18033004  0.44905054    -0.02700
C2121       C  0.84100523  0.12140042  0.23221194    -0.09400
C2122       C  0.87133237  0.12425740  0.21802800     0.06800
C2123       C  0.89777995  0.11613921  0.23597787    -0.03100
C2124       C  0.89351747  0.10667988  0.26732343    -0.07600
C2125       C  0.86337795  0.10471941  0.28196197     0.06000
C2126       C  0.83680222  0.11164511  0.26383758    -0.02600
Br2127     Br  0.79446130  0.10876291  0.28062065    -0.02300
H2128       H  0.82034390  0.12661856  0.21854874     0.09900
H2129       H  0.91437601  0.10068299  0.28037433     0.07900
Br2130     Br  0.94042977  0.11479622  0.21946255    -0.02700
C2131       C  0.73459499  0.09124671  0.37347065    -0.09400
C2132       C  0.75243472  0.10396413  0.39742217     0.06800
C2133       C  0.73814142  0.11155808  0.42635619    -0.03100
C2134       C  0.70617507  0.10517911  0.43115280    -0.07600
C2135       C  0.68818846  0.09111026  0.40760675     0.06000
C2136       C  0.70262070  0.08492699  0.37808687    -0.02600
Br2137     Br  0.68164323  0.06679783  0.34302877    -0.02300
H2138       H  0.74592643  0.08518983  0.35135292     0.09900
H2139       H  0.69568098  0.11035596  0.45388140     0.07900
Br2140     Br  0.76142415  0.12713813  0.46141935    -0.02700
C2141       C  0.89749200  0.36300187  0.23817968    -0.09400
C2142       C  0.89034100  0.38819081  0.25742198     0.06800
C2143       C  0.88707831  0.41867410  0.24444172    -0.03100
C2144       C  0.89289748  0.42392310  0.21256971    -0.07600
C2145       C  0.90164656  0.39913611  0.19306359     0.06000
C2146       C  0.90259336  0.36803850  0.20595425    -0.02600
Br2147     Br  0.91059830  0.33122298  0.18194353    -0.02300
H2148       H  0.89977882  0.33950661  0.24840810     0.09900
H2149       H  0.89154083  0.44788440  0.20333399     0.07900
Br2150     Br  0.87790860  0.45477149  0.26937306    -0.02700
C2151       C  0.73200087  0.37877541  0.36816756    -0.09400
C2152       C  0.72196716  0.35805982  0.39290867     0.06800
C2153       C  0.74410105  0.33797920  0.40678914    -0.03100
C2154       C  0.77587908  0.34046702  0.39714166    -0.07600
C2155       C  0.78623592  0.36296143  0.37397194     0.06000
C2156       C  0.76359200  0.38134054  0.35857398    -0.02600
Br2157     Br  0.77381907  0.41060141  0.32443491    -0.02300
H2158       H  0.71513712  0.39368938  0.35644218     0.09900
H2159       H  0.79280569  0.32600197  0.40929675     0.07900
Br2160     Br  0.73322226  0.30910530  0.44095283    -0.02700
C2161       C  0.88302947  0.22251650  0.34780018    -0.09400
C2162       C  0.87047335  0.21040764  0.37679900     0.06800
C2163       C  0.86825121  0.23090205  0.40248655    -0.03100
C2164       C  0.87754876  0.26229410  0.39850388    -0.07600
C2165       C  0.89019631  0.27453511  0.36973786     0.06000
C2166       C  0.89341246  0.25405564  0.34424417    -0.02600
Br2167     Br  0.91368227  0.26666452  0.30498662    -0.02300
H2168       H  0.88600518  0.20709824  0.32801501     0.09900
H2169       H  0.87510244  0.27718329  0.41876022     0.07900
Br2170     Br  0.85493677  0.21851458  0.44475788    -0.02700
C2171       C  0.96077263  0.15678082  0.53497139     0.29800
C2172       C  0.50501159  0.13772595  0.99040555     0.29800
C2173       C  0.94602292  0.14038566  0.00530383    -0.06400
C2174       C  0.97942080  0.18547632  0.52091742    -0.07200
C2175       C  0.48555046  0.13243706  0.54718145    -0.07100
C2176       C  0.96991826  0.13305940  0.98337750    -0.06400
C2177       C  0.50042116  0.17547820  0.99769769    -0.07200
C2178       C  0.50907259  0.12395618  0.52500922    -0.07100
C2179       C  0.95604173  0.13234341  0.95437936    -0.32400
N2180       N  0.92505522  0.13716812  0.95852754     0.14100
C2181       C  0.91865037  0.14268031  0.98886736    -0.32500
H2182       H  0.89591085  0.15042074  0.99732306     0.16000
C2183       C  0.51099080  0.20692861  0.98898570    -0.31400
N2184       N  0.99738770  0.23376030  0.50561404     0.12800
C2185       C  0.97604752  0.21776696  0.52442471    -0.31400
C2186       C  0.53625574  0.12013346  0.54144838    -0.31700
N2187       N  0.53089607  0.12703451  0.57170608     0.13300
H2188       H  0.55965388  0.11737277  0.53148886     0.15900
C2189       C  0.50044651  0.13481407  0.57566340    -0.31700
H2190       H  0.49102408  0.14560930  0.59659093     0.15900
H2191       H  0.95875613  0.22863264  0.53940859     0.15900
H2192       H  0.96763264  0.13016317  0.93162562     0.16000
H2193       H  0.52954305  0.21232586  0.97160247     0.15900
C2194       C  0.53479941  0.34094858  0.97346065     0.29800
C2195       C  0.98874713  0.36047403  0.51686315     0.29800
C2196       C  0.00934734  0.36700536  0.96070265    -0.06400
C2197       C  0.51608907  0.31226262  0.98751504    -0.07200
C2198       C  0.54553048  0.35866465  0.50586269    -0.07100
C2199       C  0.98729635  0.37445068  0.48340387    -0.06400
C2200       C  0.99317130  0.32258758  0.50975919    -0.07200
C2201       C  0.02231385  0.36917321  0.52578338    -0.07100
C2202       C  0.95877430  0.37965204  0.96561530    -0.32400
N2203       N  0.96494063  0.37335131  0.93524857     0.14100
C2204       C  0.99538986  0.36582394  0.93176479    -0.32500
H2205       H  0.00516758  0.35544979  0.91078520     0.16000
C2206       C  0.98280476  0.29101532  0.51854108    -0.31400
N2207       N  0.00013372  0.26804265  0.50291953     0.12800
C2208       C  0.51917869  0.27994968  0.98400997    -0.31400
C2209       C  0.53522199  0.36777595  0.55644173    -0.31700
N2210       N  0.56646117  0.36433658  0.55229271     0.13300
H2211       H  0.52357397  0.37012722  0.57914445     0.15900
C2212       C  0.57299902  0.35796988  0.52222416    -0.31700
H2213       H  0.59603065  0.35071980  0.51413242     0.15900
H2214       H  0.53648091  0.26893638  0.96915231     0.15900
H2215       H  0.93517260  0.38200243  0.97527502     0.16000
H2216       H  0.96413646  0.28554164  0.53577614     0.15900
C2217       C  0.63590819  0.01030292  0.99693767     0.29800
C2218       C  0.65263726  0.46833772  0.54349847     0.29800
C2219       C  0.62036469  0.47677279  0.99607232    -0.06400
C2220       C  0.67395522  0.00361082  0.00109635    -0.07200
C2221       C  0.62956911  0.01945416  0.53043664    -0.07100
C2222       C  0.62915117  0.45455607  0.01947936    -0.06400
C2223       C  0.68104010  0.48208654  0.52431354    -0.07200
C2224       C  0.63674024  0.99748125  0.55438183    -0.07100
C2225       C  0.63069435  0.42593038  0.00480076    -0.32400
N2226       N  0.62207868  0.42992616  0.97467520     0.14100
C2227       C  0.61519320  0.46027073  0.96935784    -0.32500
H2228       H  0.61204936  0.47028607  0.94603694     0.16000
C2229       C  0.71342561  0.47849338  0.52694937    -0.31400
N2230       N  0.72888536  0.49739579  0.50527578     0.12800
C2231       C  0.70522579  0.01311345  0.99046024    -0.31400
C2232       C  0.63862293  0.01395455  0.58166661    -0.31700
N2233       N  0.63278315  0.04431255  0.57518635     0.13300
H2234       H  0.64627323  0.00555702  0.60443906     0.15900
C2235       C  0.62832166  0.04850033  0.54418012    -0.31700
H2236       H  0.62599878  0.07127683  0.53251106     0.15900
H2237       H  0.71014054  0.03073366  0.97196292     0.15900
H2238       H  0.64195922  0.40499901  0.01381547     0.16000
H2239       H  0.72471146  0.46351435  0.54399651     0.15900
C2240       C  0.85571984  0.48667053  0.51152430     0.29800
C2241       C  0.83933916  0.03180430  0.96705634     0.29800
C2242       C  0.86425966  0.47886022  0.47771112    -0.06400
C2243       C  0.81773371  0.49358320  0.50754511    -0.07200
C2244       C  0.87203837  0.01897084  0.51858471    -0.07100
C2245       C  0.85596917  0.49855731  0.95553003    -0.06400
C2246       C  0.81085952  0.01770429  0.98604326    -0.07200
C2247       C  0.86367665  0.04114635  0.49501953    -0.07100
C2248       C  0.85632342  0.48291565  0.92764407    -0.32400
N2249       N  0.86395194  0.45290576  0.93350426     0.14100
C2250       C  0.86722801  0.44809650  0.96468200    -0.32500
H2251       H  0.87041059  0.42520537  0.97583202     0.16000
C2252       C  0.77840148  0.02050292  0.98286599    -0.31400
N2253       N  0.76526405  0.00013296  0.50631994     0.12800
C2254       C  0.78646965  0.48432999  0.51828665    -0.31400
C2255       C  0.86255561  0.06991880  0.50931180    -0.31700
N2256       N  0.87093392  0.06598526  0.53948960     0.13300
H2257       H  0.85201254  0.09109032  0.49989542     0.15900
C2258       C  0.87719597  0.03556649  0.54522038    -0.31700
H2259       H  0.88016903  0.02578128  0.56864188     0.15900
H2260       H  0.78147956  0.46661971  0.53668039     0.15900
H2261       H  0.84888480  0.49136664  0.90481312     0.16000
H2262       H  0.76706754  0.03504952  0.96552067     0.15900
C2263       C  0.98226247  0.49069584  0.64305002     0.29800
C2264       C  0.52834200  0.03645826  0.66031120     0.29800
C2265       C  0.97835614  0.02437153  0.63650507    -0.06400
C2266       C  0.98902656  0.49579647  0.68096086    -0.07200
C2267       C  0.01619185  0.48846718  0.63010006    -0.07100
C2268       C  0.00046443  0.04799990  0.64387188    -0.06400
C2269       C  0.51358004  0.01856803  0.68908797    -0.07200
C2270       C  0.53962259  0.51071651  0.64015961    -0.07100
C2271       C  0.98526350  0.07616632  0.64188471    -0.32400
N2272       N  0.95528622  0.07030139  0.63455881     0.14100
C2273       C  0.95011551  0.03911102  0.63230676    -0.32500
H2274       H  0.92700196  0.02817232  0.63027382     0.16000
C2275       C  0.51689574  0.02213594  0.72133579    -0.31400
N2276       N  0.99655888  0.00293412  0.73940073     0.12800
C2277       C  0.98053133  0.48583919  0.71276583    -0.31400
C2278       C  0.56841690  0.49621514  0.64243596    -0.31700
N2279       N  0.56470044  0.46571727  0.63499779     0.13300
H2280       H  0.58946371  0.50597009  0.65279340     0.15900
C2281       C  0.53432921  0.45999110  0.62841259    -0.31700
H2282       H  0.52450387  0.43651024  0.62596563     0.15900
H2283       H  0.96336025  0.46718936  0.71865425     0.15900
H2284       H  0.99342124  0.09919795  0.64883015     0.16000
H2285       H  0.53207890  0.03920323  0.73216114     0.15900
C2286       C  0.51003742  0.00746734  0.86397496     0.29800
C2287       C  0.96790735  0.46408856  0.84703208     0.29800
C2288       C  0.97431127  0.01211960  0.87995276    -0.06400
C2289       C  0.50287264  0.00363345  0.82604521    -0.07200
C2290       C  0.51869826  0.47295340  0.87306793    -0.07100
C2291       C  0.95218751  0.98853976  0.87153522    -0.06400
C2292       C  0.98081923  0.48309383  0.81822754    -0.07200
C2293       C  0.49710175  0.44884218  0.86565339    -0.07100
C2294       C  0.92342653  0.00297238  0.87055839    -0.32400
N2295       N  0.92734402  0.03307817  0.87934258     0.14100
C2296       C  0.95777653  0.03872924  0.88544290    -0.32500
H2297       H  0.96766890  0.06210964  0.88844408     0.16000
C2298       C  0.97645518  0.47947663  0.78616477    -0.31400
N2299       N  0.99460597  0.50090159  0.76963319     0.12800
C2300       C  0.51143588  0.01452642  0.79458957    -0.31400
C2301       C  0.51377984  0.42161316  0.86414214    -0.31700
N2302       N  0.54394434  0.42836556  0.87025228     0.13300
H2303       H  0.50576131  0.39871975  0.85656277     0.15900
C2304       C  0.54783409  0.45940800  0.87457770    -0.31700
H2305       H  0.57049724  0.47119267  0.87698809     0.15900
H2306       H  0.52879957  0.03314804  0.78925871     0.15900
H2307       H  0.90230911  0.99375894  0.85987344     0.16000
H2308       H  0.96150252  0.46189576  0.77583093     0.15900
O2309       O  0.83875429  0.35257355  0.87447784    -0.85600
O2310       O  0.89455261  0.32288177  0.88786110    -0.82600
C2311       C  0.89562428  0.31037285  0.86128997     0.97900
O2312       O  0.90769466  0.32616144  0.83828926    -0.82600
O2313       O  0.91932662  0.38028962  0.80164389    -0.85300
C2314       C  0.89359144  0.38760959  0.78917089     1.02400
O2315       O  0.87049308  0.39619719  0.80546236    -0.78000
O2316       O  0.83257954  0.40121851  0.85755091    -0.78200
C2317       C  0.82083143  0.37459958  0.86648637     1.02400
O2318       O  0.85733683  0.40295702  0.91364131    -0.85500
O2319       O  0.91382170  0.37758605  0.91969328    -0.82600
C2320       C  0.94107244  0.36873567  0.91290871     0.97900
O2321       O  0.94683573  0.35511034  0.88722432    -0.82600
O2322       O  0.95178574  0.40884260  0.85235379    -0.85200
C2323       C  0.94445574  0.43604126  0.84258710     1.02400
O2324       O  0.91731063  0.43980314  0.83101859    -0.78100
O2325       O  0.88148350  0.43939273  0.88442383    -0.78200
C2326       C  0.86793562  0.43068032  0.90971197     1.02400
Cr2327     Cr  0.87729619  0.36492127  0.89635727     1.93700
Cr2328     Cr  0.92913003  0.36823201  0.84569185     1.93200
Cr2329     Cr  0.87654544  0.41671625  0.84550685     1.39100
O2330       O  0.89414555  0.38319886  0.86206022    -1.23300
O2331       O  0.88476458  0.10354086  0.82864169    -0.85600
O2332       O  0.87109929  0.15998191  0.85466664    -0.82600
C2333       C  0.85988605  0.17891995  0.87415385     0.97900
O2334       O  0.85003311  0.16879406  0.90133647    -0.82600
O2335       O  0.79800132  0.12960383  0.89897331    -0.85300
C2336       C  0.78241843  0.10563372  0.89174812     1.02400
O2337       O  0.79537574  0.08074780  0.88313910    -0.78000
O2338       O  0.83433045  0.09208884  0.82967132    -0.78200
C2339       C  0.85913639  0.10065205  0.81446544     1.02400
O2340       O  0.91245154  0.08434039  0.88568453    -0.85500
O2341       O  0.90707164  0.14337945  0.90779894    -0.82600
C2342       C  0.90179724  0.13407871  0.93566608     0.97900
O2343       O  0.87608230  0.12135181  0.94368967    -0.82600
O2344       O  0.82499871  0.08386180  0.94359139    -0.85200
C2345       C  0.83523862  0.05610791  0.93955112     1.02400
O2346       O  0.84475268  0.04866241  0.91250087    -0.78100
O2347       O  0.88072040  0.05297626  0.86023266    -0.78200
C2348       C  0.90566321  0.05757315  0.87535333     1.02400
Cr2349     Cr  0.89127187  0.12165739  0.87027386     1.93700
Cr2350     Cr  0.83826851  0.12489719  0.91946063     1.93200
Cr2351     Cr  0.83948729  0.07127455  0.87203959     1.39100
O2352       O  0.85568839  0.10630589  0.88708501    -1.23300
O2353       O  0.56183412  0.14431117  0.91448544    -0.85600
O2354       O  0.57346768  0.10820156  0.86494115    -0.82600
C2355       C  0.58401686  0.08680023  0.84805312     0.97900
O2356       O  0.58577565  0.05928878  0.85904598    -0.82600
O2357       O  0.63592398  0.06856566  0.89400451    -0.85300
C2358       C  0.65275199  0.08085612  0.91430449     1.02400
O2359       O  0.64207129  0.08517464  0.94160083    -0.78000
O2360       O  0.60895980  0.13633765  0.93140055    -0.78200
C2361       C  0.58923142  0.15439878  0.91968608     1.02400
O2362       O  0.52023748  0.10298827  0.94377271    -0.85500
O2363       O  0.52681631  0.06126588  0.88363283    -0.82600
C2364       C  0.53223913  0.03144659  0.88349704     0.97900
O2365       O  0.55427680  0.02146250  0.90176956    -0.82600
O2366       O  0.61525043  0.02586964  0.94304728    -0.85200
C2367       C  0.61657662  0.03260563  0.97242059     1.02400
O2368       O  0.59955745  0.05594817  0.98153449    -0.78100
O2369       O  0.55893047  0.11717048  0.97458910    -0.78200
C2370       C  0.52953651  0.11911443  0.96760555     1.02400
Cr2371     Cr  0.54789123  0.10106172  0.90371827     1.93700
Cr2372     Cr  0.59580570  0.04633266  0.90258839     1.93200
Cr2373     Cr  0.59923027  0.09674657  0.95481128     1.39100
O2374       O  0.57939487  0.07993828  0.92193772    -1.23300
O2375       O  0.67449008  0.38855961  0.90381468    -0.85600
O2376       O  0.64764825  0.37554294  0.84696501    -0.82600
C2377       C  0.62769118  0.36520050  0.82794450     0.97900
O2378       O  0.60057552  0.35514575  0.83790089    -0.82600
O2379       O  0.60502003  0.30214822  0.87557853    -0.85300
C2380       C  0.61298311  0.28584431  0.89894588     1.02400
O2381       O  0.62100400  0.29837057  0.92427109    -0.78000
O2382       O  0.67380846  0.33821058  0.91411601    -0.78200
C2383       C  0.68883860  0.36286652  0.90474386     1.02400
O2384       O  0.61724903  0.41598802  0.92301983    -0.85500
O2385       O  0.59480993  0.41097947  0.86433282    -0.82600
C2386       C  0.56699656  0.40539267  0.87367458     0.97900
O2387       O  0.55911973  0.37951487  0.88632322    -0.82600
O2388       O  0.55962997  0.32653662  0.92205399    -0.85200
C2389       C  0.56304012  0.33694585  0.94977684     1.02400
O2390       O  0.59004437  0.34662323  0.95762944    -0.78100
O2391       O  0.64208263  0.38359550  0.95446313    -0.78200
C2392       C  0.62695153  0.40867275  0.94992458     1.02400
Cr2393     Cr  0.63257751  0.39516972  0.88561984     1.93700
Cr2394     Cr  0.58352159  0.34187079  0.88157652     1.93200
Cr2395     Cr  0.63110473  0.34246891  0.93513268     1.39100
O2396       O  0.61586294  0.35927541  0.90046121    -1.23300
O2397       O  0.62466642  0.33889743  0.65298140    -0.85600
O2398       O  0.61149859  0.39328104  0.68326982    -0.83600
C2399       C  0.63816319  0.39601136  0.69560923     0.97900
O2400       O  0.66136151  0.40690995  0.67934173    -0.82600
O2401       O  0.69763162  0.41828147  0.62487211    -0.85300
C2402       C  0.71012522  0.39272794  0.61716381     1.02400
O2403       O  0.69382847  0.36921454  0.60995599    -0.78000
O2404       O  0.64153349  0.33137555  0.60458189    -0.78200
C2405       C  0.63345098  0.32050959  0.63185481     1.02400
O2406       O  0.58541696  0.35784687  0.60262554    -0.85500
O2407       O  0.57988382  0.41456864  0.62858458    -0.82600
C2408       C  0.58694332  0.44141301  0.63842405     0.97900
O2409       O  0.61292361  0.44638108  0.65178024    -0.82600
O2410       O  0.64696253  0.45114882  0.59779273    -0.85200
C2411       C  0.65719921  0.44426613  0.57082948     1.02400
O2412       O  0.66864726  0.41703298  0.56675315    -0.78100
O2413       O  0.61544148  0.38117271  0.56635762    -0.78200
C2414       C  0.58990821  0.36808076  0.57486703     1.02400
Cr2415     Cr  0.60282161  0.37728051  0.64078609     1.93700
Cr2416     Cr  0.65394832  0.42828005  0.63775190     1.93200
Cr2417     Cr  0.65391853  0.37577316  0.58933813     1.39100
O2418       O  0.63729714  0.39357358  0.62271817    -1.23300
O2419       O  0.88565807  0.36035090  0.57480471    -0.85600
O2420       O  0.85035276  0.41039237  0.56472159    -0.82600
C2421       C  0.84021737  0.41402806  0.59233608     0.97900
O2422       O  0.85801039  0.42438985  0.61281831    -0.82600
O2423       O  0.90746287  0.43464739  0.64809980    -0.85300
C2424       C  0.91115146  0.40679666  0.65788970     1.02400
O2425       O  0.92214488  0.38675563  0.63998476    -0.78000
O2426       O  0.93368701  0.35311509  0.58974829    -0.78200
C2427       C  0.90623463  0.34261326  0.58545199     1.02400
O2428       O  0.93457689  0.38053079  0.53163371    -0.85500
O2429       O  0.89275293  0.44125098  0.52564593    -0.82600
C2430       C  0.87529733  0.46400526  0.53547421     0.97900
O2431       O  0.87642102  0.46988232  0.56508327    -0.82600
O2432       O  0.93717587  0.47565264  0.60624329    -0.85200
C2433       C  0.96008235  0.46615802  0.62367854     1.02400
O2434       O  0.96648897  0.43654770  0.62254007    -0.78100
O2435       O  0.97321014  0.39694133  0.56137335    -0.78200
C2436       C  0.96405758  0.37960392  0.53847163     1.02400
Cr2437     Cr  0.89395293  0.40006451  0.55153108     1.93700
Cr2438     Cr  0.89671063  0.44889966  0.60492988     1.93200
Cr2439     Cr  0.94653638  0.39646355  0.60151708     1.39100
O2440       O  0.91399678  0.41679224  0.58436015    -1.23300
O2441       O  0.60299219  0.17583433  0.61725167    -0.85600
O2442       O  0.65791093  0.14642092  0.63119446    -0.82600
C2443       C  0.67639263  0.12603610  0.64180485     0.97900
O2444       O  0.66579825  0.09872292  0.65046514    -0.82600
O2445       O  0.62649384  0.10412464  0.70162476    -0.85300
C2446       C  0.60286253  0.11197809  0.71748121     1.02400
O2447       O  0.57736005  0.11931377  0.70467087    -0.78000
O2448       O  0.58970818  0.17299827  0.66711225    -0.78200
C2449       C  0.60085409  0.18868026  0.64361324     1.02400
O2450       O  0.58231019  0.12062713  0.58674577    -0.85500
O2451       O  0.63964469  0.09495444  0.59330036    -0.82600
C2452       C  0.62968465  0.06717257  0.59841539     0.97900
O2453       O  0.61686417  0.05904533  0.62412564    -0.82600
O2454       O  0.57967462  0.06010764  0.67608946    -0.85200
C2455       C  0.55246606  0.06402534  0.66442171     1.02400
O2456       O  0.54550957  0.09103042  0.65394309    -0.78100
O2457       O  0.55054844  0.14481998  0.61912610    -0.78200
C2458       C  0.55542972  0.13080516  0.59358007     1.02400
Cr2459     Cr  0.61958790  0.13337559  0.60959160     1.93700
Cr2460     Cr  0.62111814  0.08294147  0.66200703     1.93200
Cr2461     Cr  0.56821298  0.13131425  0.66044693     1.39100
O2462       O  0.60319118  0.11593239  0.64440315    -1.23300
O2463       O  0.85424000  0.12533318  0.66616217    -0.85600
O2464       O  0.82214199  0.11061725  0.61356368    -0.82600
C2465       C  0.80895604  0.13690432  0.61100123     0.97900
O2466       O  0.82419815  0.16021192  0.59870906    -0.82600
O2467       O  0.87654867  0.19876619  0.58472738    -0.85300
C2468       C  0.88390865  0.21199416  0.60986590     1.02400
O2469       O  0.89225814  0.19631879  0.63355878    -0.78000
O2470       O  0.90234608  0.14425380  0.67178631    -0.78200
C2471       C  0.87612448  0.13413012  0.68359173     1.02400
O2472       O  0.90554371  0.08847947  0.64520549    -0.85500
O2473       O  0.87768359  0.08104692  0.59039839    -0.82600
C2474       C  0.86718641  0.08783935  0.56378739     0.97900
O2475       O  0.85253520  0.11307909  0.55908128    -0.82600
O2476       O  0.90598578  0.14907512  0.55239924    -0.85200
C2477       C  0.93276354  0.16068959  0.55877370     1.02400
O2478       O  0.93629826  0.17309001  0.58552061    -0.78100
O2479       O  0.94004425  0.12006470  0.62115808    -0.78200
C2480       C  0.93250975  0.09377468  0.63328037     1.02400
Cr2481     Cr  0.86585155  0.10388551  0.62761817     1.93700
Cr2482     Cr  0.86558163  0.15451408  0.57600583     1.93200
Cr2483     Cr  0.91525286  0.15742439  0.62710188     1.39100
O2484       O  0.88213230  0.13894431  0.61042918    -1.23300
C2485       C  0.72178040  0.15599257  0.61697188    -0.09400
C2486       C  0.71088748  0.13320505  0.63958292     0.06800
C2487       C  0.73333886  0.11580601  0.65633267    -0.03100
C2488       C  0.76532716  0.11848834  0.64743573    -0.07600
C2489       C  0.77574627  0.13893761  0.62248131     0.06000
C2490       C  0.75376256  0.15898228  0.60836127    -0.02600
Br2491     Br  0.76510619  0.18851431  0.57492958    -0.02300
H2492       H  0.70512823  0.17032085  0.60428173     0.09900
H2493       H  0.78212839  0.10400978  0.65977555     0.07900
Br2494     Br  0.72194077  0.08889432  0.69195082    -0.02700
C2495       C  0.91981304  0.29262958  0.61180144    -0.09400
C2496       C  0.89846715  0.30954984  0.59336934     0.06800
C2497       C  0.87053819  0.29440542  0.58327017    -0.03100
C2498       C  0.86476606  0.26297727  0.59173972    -0.07600
C2499       C  0.88664231  0.24606363  0.60926557     0.06000
C2500       C  0.91433683  0.26103529  0.61952911    -0.02600
Br2501     Br  0.94755849  0.23897268  0.64043860    -0.02300
H2502       H  0.94145887  0.30370805  0.61955650     0.09900
H2503       H  0.84393566  0.25109079  0.58299551     0.07900
Br2504     Br  0.84057886  0.31336953  0.55548833    -0.02700
C2505       C  0.63619137  0.23171509  0.62382524    -0.09400
C2506       C  0.61198469  0.22177092  0.64520758     0.06800
C2507       C  0.59763594  0.24416474  0.66440730    -0.03100
C2508       C  0.60715117  0.27586341  0.66134704    -0.07600
C2509       C  0.62965127  0.28615791  0.63817041     0.06000
C2510       C  0.64451795  0.26349816  0.61952610    -0.02600
Br2511     Br  0.67500300  0.27391157  0.58661518    -0.02300
H2512       H  0.64774698  0.21471068  0.60904556     0.09900
H2513       H  0.59493244  0.29285672  0.67557928     0.07900
Br2514     Br  0.56194941  0.23403748  0.69153326    -0.02700
C2515       C  0.76159347  0.40937028  0.63488033    -0.09400
C2516       C  0.74401937  0.39219480  0.61353489     0.06800
C2517       C  0.75832757  0.38093581  0.58588895    -0.03100
C2518       C  0.79012377  0.38743120  0.58004042    -0.07600
C2519       C  0.80746450  0.40612754  0.60064114     0.06000
C2520       C  0.79287967  0.41722599  0.62837601    -0.02600
Br2521     Br  0.81200701  0.44645014  0.65663962    -0.02300
H2522       H  0.75020837  0.41876283  0.65566105     0.09900
H2523       H  0.80089838  0.37901713  0.55853689     0.07900
Br2524     Br  0.73515810  0.36090232  0.55306478    -0.02700
C2525       C  0.65506308  0.39403666  0.78312026    -0.09400
C2526       C  0.63468809  0.36904307  0.79365891     0.06800
C2527       C  0.61879711  0.35119594  0.77108927    -0.03100
C2528       C  0.62209644  0.35952989  0.73920091    -0.07600
C2529       C  0.64061735  0.38579949  0.72891843     0.06000
C2530       C  0.65773218  0.40282097  0.75112565    -0.02600
Br2531     Br  0.68131375  0.44063820  0.73979530    -0.02300
H2532       H  0.66726913  0.40834968  0.80001233     0.09900
H2533       H  0.60909526  0.34591939  0.72228941     0.07900
Br2534     Br  0.59177749  0.31554350  0.78193659    -0.02700
C2535       C  0.61068679  0.07812954  0.76334973    -0.09400
C2536       C  0.60337734  0.10796274  0.75125584     0.06800
C2537       C  0.59277051  0.13149621  0.77112942    -0.03100
C2538       C  0.58783000  0.12439835  0.80292838    -0.07600
C2539       C  0.59291857  0.09377764  0.81505517     0.06000
C2540       C  0.60566647  0.07069474  0.79505107    -0.02600
Br2541     Br  0.61683806  0.02861952  0.80826160    -0.02300
H2542       H  0.61894844  0.06001812  0.74772703     0.09900
H2543       H  0.57905467  0.14273953  0.81793732     0.07900
Br2544     Br  0.58472913  0.17338723  0.75569775    -0.02700
C2545       C  0.57581567  0.20556147  0.89519748    -0.09400
C2546       C  0.59764892  0.18756894  0.91203320     0.06800
C2547       C  0.62612604  0.20211185  0.92164154    -0.03100
C2548       C  0.63200854  0.23380365  0.91415701    -0.07600
C2549       C  0.60955455  0.25175669  0.89858921     0.06000
C2550       C  0.58112249  0.23755202  0.88913068    -0.02600
Br2551     Br  0.54652849  0.26114162  0.87256478    -0.02300
H2552       H  0.55364589  0.19514497  0.88798892     0.09900
H2553       H  0.65338741  0.24507937  0.92239789     0.07900
Br2554     Br  0.65667317  0.18212612  0.94794736    -0.02700
C2555       C  0.84246975  0.13175800  0.73212282    -0.09400
C2556       C  0.87221650  0.12770335  0.71755379     0.06800
C2557       C  0.89602975  0.11243465  0.73442331    -0.03100
C2558       C  0.88982290  0.10176168  0.76507525    -0.07600
C2559       C  0.86060781  0.10680533  0.78023051     0.06000
C2560       C  0.83663977  0.12190093  0.76346238    -0.02600
Br2561     Br  0.79659570  0.13143562  0.78245309    -0.02300
H2562       H  0.82376994  0.14284932  0.71909501     0.09900
H2563       H  0.90851740  0.08997270  0.77751779     0.07900
Br2564     Br  0.93715999  0.10368381  0.71708276    -0.02700
C2565       C  0.72945547  0.10116674  0.87137848    -0.09400
C2566       C  0.74894895  0.10468722  0.89710685     0.06800
C2567       C  0.73676077  0.10161998  0.92803765    -0.03100
C2568       C  0.70534755  0.09361162  0.93277557    -0.07600
C2569       C  0.68554172  0.08938312  0.90715670     0.06000
C2570       C  0.69755827  0.09424031  0.87608919    -0.02600
Br2571     Br  0.67242244  0.09337554  0.83911088    -0.02300
H2572       H  0.73920182  0.10350938  0.84761718     0.09900
H2573       H  0.69655992  0.09028543  0.95679279     0.07900
Br2574     Br  0.76158023  0.10622995  0.96500502    -0.02700
C2575       C  0.91004333  0.36714283  0.73821827    -0.09400
C2576       C  0.89198082  0.38860029  0.75504285     0.06800
C2577       C  0.87725650  0.41363709  0.73908265    -0.03100
C2578       C  0.88282088  0.41804571  0.70702295    -0.07600
C2579       C  0.90301374  0.39815334  0.69054114     0.06000
C2580       C  0.91583088  0.37165206  0.70613041    -0.02600
Br2581     Br  0.94390158  0.34234772  0.68664546    -0.02300
H2582       H  0.92122568  0.34775569  0.75047766     0.09900
H2583       H  0.87243973  0.43815059  0.69525068     0.07900
Br2584     Br  0.85282084  0.44522489  0.75969456    -0.02700
C2585       C  0.73594700  0.39360221  0.88621711    -0.09400
C2586       C  0.72271793  0.36376162  0.89455716     0.06800
C2587       C  0.74169620  0.33699443  0.89111646    -0.03100
C2588       C  0.77315809  0.34078976  0.88026918    -0.07600
C2589       C  0.78630516  0.37090283  0.87249013     0.06000
C2590       C  0.76688891  0.39747763  0.87525909    -0.02600
Br2591     Br  0.78038753  0.44057804  0.86659812    -0.02300
H2592       H  0.72215889  0.41473012  0.88835541     0.09900
H2593       H  0.78761219  0.32005842  0.87857785     0.07900
Br2594     Br  0.72655084  0.29489154  0.90093395    -0.02700
C2595       C  0.87965941  0.22437691  0.83922865    -0.09400
C2596       C  0.86248245  0.21345262  0.86647637     0.06800
C2597       C  0.85160369  0.23603712  0.88767340    -0.03100
C2598       C  0.86207469  0.26725897  0.88435123    -0.07600
C2599       C  0.88231591  0.27764882  0.85935221     0.06000
C2600       C  0.88883407  0.25638603  0.83509184    -0.02600
Br2601     Br  0.90957852  0.26939787  0.79617277    -0.02300
H2602       H  0.88687773  0.20788573  0.82148355     0.09900
H2603       H  0.85435773  0.28360492  0.90203741     0.07900
Br2604     Br  0.82218873  0.22658021  0.92174440    -0.02700
C2605       C  0.95633166  0.65680406  0.03556722     0.29800
C2606       C  0.50391724  0.63617017  0.48952631     0.29800
C2607       C  0.94577788  0.64045150  0.50226657    -0.06400
C2608       C  0.97400501  0.68578597  0.02095144    -0.07200
C2609       C  0.48239268  0.63094172  0.04854457    -0.07100
C2610       C  0.96982442  0.63329952  0.48050156    -0.06400
C2611       C  0.49820864  0.67400342  0.49563806    -0.07200
C2612       C  0.50600921  0.62257558  0.02637465    -0.07100
C2613       C  0.95629023  0.63317365  0.45127763    -0.32400
N2614       N  0.92525723  0.63818820  0.45517963     0.14100
C2615       C  0.91869500  0.64358330  0.48554983    -0.32500
H2616       H  0.89589270  0.65111910  0.49406144     0.16000
C2617       C  0.50862019  0.70560037  0.48710237    -0.31400
N2618       N  0.99198697  0.73412700  0.00599724     0.12800
C2619       C  0.97086205  0.71805150  0.02501027    -0.31400
C2620       C  0.53305609  0.61875967  0.04291572    -0.31700
N2621       N  0.52744852  0.62551139  0.07318908     0.13300
H2622       H  0.55651020  0.61613970  0.03302876     0.15900
C2623       C  0.49700135  0.63315504  0.07711711    -0.31700
H2624       H  0.48742373  0.64375490  0.09808627     0.15900
H2625       H  0.95412631  0.72882955  0.04069025     0.15900
H2626       H  0.96808103  0.63058538  0.42867483     0.16000
H2627       H  0.52773083  0.71112878  0.47037977     0.15900
C2628       C  0.53529100  0.83891317  0.47583641     0.29800
C2629       C  0.98641843  0.86061506  0.01929525     0.29800
C2630       C  0.00949154  0.86485180  0.46437695    -0.06400
C2631       C  0.51474739  0.81080764  0.48789886    -0.07200
C2632       C  0.54516969  0.85584540  0.00600071    -0.07100
C2633       C  0.98497601  0.87520023  0.98606124    -0.06400
C2634       C  0.98984343  0.82282336  0.01145625    -0.07200
C2635       C  0.02031497  0.86834484  0.02802681    -0.07100
C2636       C  0.95867831  0.87652774  0.46998229    -0.32400
N2637       N  0.96426036  0.86957092  0.43970552     0.14100
C2638       C  0.99482325  0.86233248  0.43581386    -0.32500
H2639       H  0.00452989  0.85176515  0.41488188     0.16000
C2640       C  0.97873114  0.79143743  0.01991307    -0.31400
N2641       N  0.99531875  0.76833937  0.00375437     0.12800
C2642       C  0.51687611  0.77862577  0.48310218    -0.31400
C2643       C  0.53600430  0.86590979  0.05664723    -0.31700
N2644       N  0.56724529  0.86219451  0.05209069     0.13300
H2645       H  0.52472301  0.86879514  0.07944803     0.15900
C2646       C  0.57314574  0.85543564  0.02186060    -0.31700
H2647       H  0.59601790  0.84823258  0.01327375     0.15900
H2648       H  0.53406976  0.76768465  0.46806688     0.15900
H2649       H  0.93524804  0.87900903  0.48001253     0.16000
H2650       H  0.96014572  0.78615085  0.03730000     0.15900
C2651       C  0.63625602  0.51144536  0.49621028     0.29800
C2652       C  0.65236316  0.96686744  0.04443375     0.29800
C2653       C  0.62501972  0.97751000  0.49483059    -0.06400
C2654       C  0.67421661  0.50427919  0.49977250    -0.07200
C2655       C  0.62720729  0.51888436  0.03106095    -0.07100
C2656       C  0.63305397  0.95539420  0.51852441    -0.06400
C2657       C  0.68082690  0.98130391  0.02562202    -0.07200
C2658       C  0.63465411  0.49698980  0.05486689    -0.07100
C2659       C  0.63376363  0.92641447  0.50454961    -0.32400
N2660       N  0.62523443  0.93010969  0.47437570     0.14100
C2661       C  0.62005946  0.96075904  0.46819673    -0.32500
H2662       H  0.61724008  0.97044281  0.44467917     0.16000
C2663       C  0.71329435  0.97831933  0.02860597    -0.31400
N2664       N  0.72873086  0.99761824  0.00721948     0.12800
C2665       C  0.70546568  0.51318652  0.48868073    -0.31400
C2666       C  0.63566499  0.51315010  0.08240093    -0.31700
N2667       N  0.62944527  0.54348135  0.07601374     0.13300
H2668       H  0.64276325  0.50461960  0.10531560     0.15900
C2669       C  0.62543200  0.54783050  0.04490856    -0.31700
H2670       H  0.62270307  0.57059532  0.03332954     0.15900
H2671       H  0.71043158  0.53063352  0.47002652     0.15900
H2672       H  0.64347908  0.90500805  0.51434236     0.16000
H2673       H  0.72464304  0.96343793  0.04569715     0.15900
C2674       C  0.85565783  0.98793819  0.01412357     0.29800
C2675       C  0.83944883  0.53060028  0.46451078     0.29800
C2676       C  0.86390828  0.97992861  0.98026621    -0.06400
C2677       C  0.81768791  0.99518078  0.01037509    -0.07200
C2678       C  0.86684189  0.51844727  0.01535862    -0.07100
C2679       C  0.85856575  0.99891604  0.45967626    -0.06400
C2680       C  0.81096066  0.51620078  0.48326624    -0.07200
C2681       C  0.85820555  0.54047784  0.99185444    -0.07100
C2682       C  0.85785258  0.98303806  0.43206411    -0.32400
N2683       N  0.86442257  0.95285529  0.43824051     0.14100
C2684       C  0.86808792  0.94815732  0.46935920    -0.32500
H2685       H  0.87085563  0.92529910  0.48072841     0.16000
C2686       C  0.77855817  0.51960678  0.48050610    -0.31400
N2687       N  0.76149589  0.49717850  0.00222227     0.12800
C2688       C  0.78643481  0.98552873  0.02084994    -0.31400
C2689       C  0.85628921  0.56923516  0.00624596    -0.31700
N2690       N  0.86482217  0.56561852  0.03645561     0.13300
H2691       H  0.84565571  0.59028671  0.99669686     0.15900
C2692       C  0.87112650  0.53513474  0.04225390    -0.31700
H2693       H  0.87433721  0.52538310  0.06565889     0.15900
H2694       H  0.78153156  0.96762292  0.03906456     0.15900
H2695       H  0.85060773  0.99150068  0.40917653     0.16000
H2696       H  0.76727511  0.53486988  0.46370970     0.15900
C2697       C  0.98309483  0.99038204  0.14648402     0.29800
C2698       C  0.52594636  0.53552387  0.15940903     0.29800
C2699       C  0.97328619  0.52541428  0.13452762    -0.06400
C2700       C  0.99007119  0.99471825  0.18452695    -0.07200
C2701       C  0.01677957  0.98840659  0.13327921    -0.07100
C2702       C  0.99531816  0.54922933  0.14182175    -0.06400
C2703       C  0.51235642  0.51643292  0.18762437    -0.07200
C2704       C  0.53771249  0.00850703  0.14123511    -0.07100
C2705       C  0.97927631  0.57696770  0.14237080    -0.32400
N2706       N  0.94902401  0.57086177  0.13598819     0.14100
C2707       C  0.94453044  0.53973964  0.13214684    -0.32500
H2708       H  0.92163853  0.52838045  0.12991081     0.16000
C2709       C  0.51645282  0.51964993  0.21966995    -0.31400
N2710       N  0.99463959  0.50321306  0.23660402     0.12800
C2711       C  0.98185097  0.98396443  0.21621303    -0.31400
C2712       C  0.56654809  0.99422955  0.14289552    -0.31700
N2713       N  0.56274945  0.96374988  0.13548551     0.13300
H2714       H  0.58774645  0.00407505  0.15288160     0.15900
C2715       C  0.53227277  0.95770704  0.12967306    -0.31700
H2716       H  0.52252768  0.93414097  0.12758171     0.15900
H2717       H  0.96484429  0.96518844  0.22182966     0.15900
H2718       H  0.98761638  0.59972348  0.15001860     0.16000
H2719       H  0.53154096  0.53693199  0.23031927     0.15900
C2720       C  0.51127858  0.50721269  0.36223458     0.29800
C2721       C  0.96980015  0.96128732  0.35126419     0.29800
C2722       C  0.97373417  0.51168106  0.37662491    -0.06400
C2723       C  0.50443457  0.50220153  0.32434011    -0.07200
C2724       C  0.51842219  0.97234655  0.37528100    -0.07100
C2725       C  0.95170620  0.48810172  0.36808290    -0.06400
C2726       C  0.98292133  0.97977876  0.32206539    -0.07200
C2727       C  0.49595961  0.94884867  0.36822890    -0.07100
C2728       C  0.92309568  0.50316240  0.36516926    -0.32400
N2729       N  0.92690424  0.53373413  0.37265847     0.14100
C2730       C  0.95720262  0.53896331  0.37984017    -0.32500
H2731       H  0.96725818  0.56231791  0.38252423     0.16000
C2732       C  0.97856616  0.97616425  0.28992020    -0.31400
N2733       N  0.99653875  0.99777207  0.27334489     0.12800
C2734       C  0.51257957  0.51246922  0.29258377    -0.31400
C2735       C  0.51099284  0.92061257  0.36976351    -0.31700
N2736       N  0.54115360  0.92631519  0.37660437     0.13300
H2737       H  0.50243224  0.89766125  0.36296562     0.15900
C2738       C  0.54658225  0.95746388  0.37905492    -0.31700
H2739       H  0.56975278  0.96829620  0.38105604     0.15900
H2740       H  0.52965714  0.53121387  0.28672730     0.15900
H2741       H  0.90216555  0.49362702  0.35440331     0.16000
H2742       H  0.96389468  0.95840588  0.27956137     0.15900
O2743       O  0.83713106  0.85413050  0.37916054    -0.85600
O2744       O  0.89090068  0.82199238  0.39216702    -0.82600
C2745       C  0.89235418  0.81025101  0.36525269     0.97900
O2746       O  0.90491613  0.82627240  0.34264582    -0.82600
O2747       O  0.91944075  0.88054326  0.30658012    -0.85300
C2748       C  0.89466189  0.88990546  0.29368160     1.02400
O2749       O  0.87097485  0.89798215  0.30946571    -0.78000
O2750       O  0.83185818  0.90277954  0.36170287    -0.78200
C2751       C  0.81966249  0.87629071  0.37061248     1.02400
O2752       O  0.85717231  0.90309028  0.41866707    -0.85500
O2753       O  0.91306317  0.87572868  0.42457699    -0.82600
C2754       C  0.93990703  0.86576088  0.41764608     0.97900
O2755       O  0.94487288  0.85215756  0.39185315    -0.82600
O2756       O  0.95200358  0.90667899  0.35787414    -0.85200
C2757       C  0.94552409  0.93398916  0.34772210     1.02400
O2758       O  0.91833414  0.93878727  0.33670692    -0.78100
O2759       O  0.88162969  0.93919301  0.38933034    -0.78200
C2760       C  0.86804574  0.93061409  0.41458599     1.02400
Cr2761     Cr  0.87588707  0.86479700  0.40107945     1.93700
Cr2762     Cr  0.92791139  0.86707687  0.35059177     1.93200
Cr2763     Cr  0.87664797  0.91710535  0.35030314     1.39100
O2764       O  0.89324724  0.88291839  0.36684622    -1.23300
O2765       O  0.87993374  0.60657193  0.32443022    -0.85600
O2766       O  0.86633089  0.66089711  0.35425696    -0.82600
C2767       C  0.85688046  0.67955195  0.37484779     0.97900
O2768       O  0.84934203  0.66916736  0.40252620    -0.82600
O2769       O  0.79786842  0.63090087  0.39832220    -0.85300
C2770       C  0.78152336  0.60806105  0.38969265     1.02400
O2771       O  0.79393666  0.58219528  0.38277998    -0.78000
O2772       O  0.83003297  0.59408001  0.32872909    -0.78200
C2773       C  0.85302805  0.60537314  0.31246430     1.02400
O2774       O  0.91216955  0.58544141  0.37873379    -0.85500
O2775       O  0.90627480  0.64307412  0.40458664    -0.82600
C2776       C  0.90184724  0.63362580  0.43264024     0.97900
O2777       O  0.87668325  0.61993079  0.44132332    -0.82600
O2778       O  0.82415521  0.58277360  0.44160840    -0.85200
C2779       C  0.83494711  0.55520644  0.43720234     1.02400
O2780       O  0.84441174  0.54827180  0.40992289    -0.78100
O2781       O  0.87871955  0.55364150  0.35591383    -0.78200
C2782       C  0.90487844  0.55845907  0.36908083     1.02400
Cr2783     Cr  0.88879668  0.62286339  0.36670756     1.93700
Cr2784     Cr  0.83797838  0.62445796  0.41856061     1.93200
Cr2785     Cr  0.83763242  0.57191704  0.37005359     1.39100
O2786       O  0.85455722  0.60645704  0.38523446    -1.23300
O2787       O  0.56149906  0.64394161  0.41531447    -0.85600
O2788       O  0.57321813  0.60936777  0.36537459    -0.82600
C2789       C  0.58432201  0.58861337  0.34815356     0.97900
O2790       O  0.58615930  0.56083358  0.35842196    -0.82600
O2791       O  0.63540732  0.57083875  0.39339198    -0.85300
C2792       C  0.65295080  0.58226500  0.41349261     1.02400
O2793       O  0.64305965  0.58547241  0.44133693    -0.78000
O2794       O  0.60897500  0.63500409  0.43083458    -0.78200
C2795       C  0.58941107  0.65320670  0.41944435     1.02400
O2796       O  0.52003098  0.60121434  0.44354266    -0.85500
O2797       O  0.52739475  0.56103227  0.38264622    -0.82600
C2798       C  0.53328201  0.53129921  0.38198740     0.97900
O2799       O  0.55543363  0.52140194  0.40021052    -0.82600
O2800       O  0.61613755  0.52687729  0.44215627    -0.85200
C2801       C  0.61690267  0.53327318  0.47169122     1.02400
O2802       O  0.59926883  0.55593368  0.48099952    -0.78100
O2803       O  0.55848722  0.61646399  0.47414310    -0.78200
C2804       C  0.52897518  0.61770700  0.46719814     1.02400
Cr2805     Cr  0.54770973  0.60080300  0.40367853     1.93700
Cr2806     Cr  0.59637865  0.54714297  0.40168984     1.93200
Cr2807     Cr  0.59930308  0.59635726  0.45453285     1.39100
O2808       O  0.57937900  0.57976412  0.42162911    -1.23300
O2809       O  0.67204178  0.88727786  0.40354234    -0.85600
O2810       O  0.64380883  0.87369839  0.34789416    -0.82600
C2811       C  0.62352344  0.86373922  0.32909868     0.97900
O2812       O  0.59673038  0.85302688  0.33934130    -0.82600
O2813       O  0.60362822  0.80008072  0.37662953    -0.85300
C2814       C  0.61275957  0.78364005  0.39939776     1.02400
O2815       O  0.62042429  0.79614876  0.42492238    -0.78000
O2816       O  0.67241627  0.83693069  0.41389156    -0.78200
C2817       C  0.68687929  0.86190745  0.40450830     1.02400
O2818       O  0.61521730  0.91387752  0.42440841    -0.85500
O2819       O  0.59100239  0.90818295  0.36677901    -0.82600
C2820       C  0.56380268  0.90274654  0.37779645     0.97900
O2821       O  0.55619258  0.87636373  0.38946878    -0.82600
O2822       O  0.55894460  0.82338798  0.42455477    -0.85200
C2823       C  0.56291705  0.83422503  0.45202364     1.02400
O2824       O  0.58996949  0.84397364  0.45939666    -0.78100
O2825       O  0.64130104  0.88178241  0.45516211    -0.78200
C2826       C  0.62690443  0.90735289  0.45061605     1.02400
Cr2827     Cr  0.62954723  0.89312433  0.38671425     1.93700
Cr2828     Cr  0.58125018  0.83919123  0.38353957     1.93200
Cr2829     Cr  0.63024405  0.84041693  0.43591367     1.39100
O2830       O  0.61376982  0.85705299  0.40179828    -1.23300
O2831       O  0.62282202  0.83778585  0.15504227    -0.85600
O2832       O  0.60903864  0.89201821  0.18425241    -0.83600
C2833       C  0.63543022  0.89531764  0.19705633     0.97900
O2834       O  0.65880244  0.90666410  0.18128472    -0.82600
O2835       O  0.69624396  0.91904417  0.12770184    -0.85300
C2836       C  0.70972653  0.89349629  0.12207515     1.02400
O2837       O  0.69404994  0.86956387  0.11473262    -0.78000
O2838       O  0.64276929  0.82994316  0.10786819    -0.78200
C2839       C  0.63308459  0.81928195  0.13475334     1.02400
O2840       O  0.58532829  0.85612779  0.10292805    -0.85500
O2841       O  0.57873272  0.91302768  0.12831071    -0.82600
C2842       C  0.58516884  0.93974858  0.13875086     0.97900
O2843       O  0.61066229  0.94484452  0.15277792    -0.82600
O2844       O  0.64543060  0.94975175  0.09884321    -0.85200
C2845       C  0.65661234  0.94285295  0.07218784     1.02400
O2846       O  0.66876926  0.91575577  0.06880762    -0.78100
O2847       O  0.61691403  0.87762881  0.06684218    -0.78200
C2848       C  0.59078603  0.86540419  0.07496280     1.02400
Cr2849     Cr  0.60147494  0.87595336  0.14151717     1.93700
Cr2850     Cr  0.65201042  0.92760820  0.13937806     1.93200
Cr2851     Cr  0.65466513  0.87432488  0.09197304     1.39100
O2852       O  0.63634858  0.89240968  0.12430981    -1.23300
O2853       O  0.88382415  0.86187241  0.07912277    -0.85600
O2854       O  0.84898891  0.91198129  0.06956363    -0.82600
C2855       C  0.83960933  0.91648561  0.09732892     0.97900
O2856       O  0.85770995  0.92794166  0.11693238    -0.82600
O2857       O  0.90770505  0.93705693  0.15086758    -0.85300
C2858       C  0.91099587  0.90953069  0.16170346     1.02400
O2859       O  0.92149015  0.88846975  0.14450062    -0.78000
O2860       O  0.93188889  0.85378938  0.09374444    -0.78200
C2861       C  0.90446516  0.84369328  0.08876266     1.02400
O2862       O  0.93251734  0.88100844  0.03506927    -0.85500
O2863       O  0.89147161  0.94178680  0.02878349    -0.82600
C2864       C  0.87487404  0.96518962  0.03834091     0.97900
O2865       O  0.87672684  0.97164530  0.06778575    -0.82600
O2866       O  0.93840317  0.97629622  0.10856395    -0.85200
C2867       C  0.96076500  0.96638655  0.12654020     1.02400
O2868       O  0.96645788  0.93664997  0.12568744    -0.78100
O2869       O  0.97172986  0.89662132  0.06456384    -0.78200
C2870       C  0.96210172  0.87969057  0.04152713     1.02400
Cr2871     Cr  0.89234959  0.90112499  0.05547642     1.93700
Cr2872     Cr  0.89701456  0.95090375  0.10782588     1.93200
Cr2873     Cr  0.94546599  0.89698189  0.10512968     1.39100
O2874       O  0.91313455  0.91782249  0.08790078    -1.23300
O2875       O  0.59926353  0.67523332  0.11813677    -0.85600
O2876       O  0.65378843  0.64564043  0.13231774    -0.82600
C2877       C  0.67254491  0.62480248  0.14122025     0.97900
O2878       O  0.66215142  0.59759009  0.15025575    -0.82600
O2879       O  0.62381802  0.60437347  0.20175222    -0.85300
C2880       C  0.60089762  0.61334268  0.21803750     1.02400
O2881       O  0.57471910  0.61940435  0.20591710    -0.78000
O2882       O  0.58654751  0.67234415  0.16805400    -0.78200
C2883       C  0.59761565  0.68802839  0.14456029     1.02400
O2884       O  0.57873929  0.61962701  0.08805069    -0.85500
O2885       O  0.63581811  0.59413271  0.09423349    -0.82600
C2886       C  0.62595193  0.56628802  0.09927824     0.97900
O2887       O  0.61304758  0.55810633  0.12496280    -0.82600
O2888       O  0.57641418  0.55961080  0.17704397    -0.85200
C2889       C  0.54939356  0.56333498  0.16487704     1.02400
O2890       O  0.54192677  0.59052623  0.15541137    -0.78100
O2891       O  0.54693816  0.64381320  0.12043515    -0.78200
C2892       C  0.55185775  0.62959066  0.09500032     1.02400
Cr2893     Cr  0.61581160  0.63263502  0.11057932     1.93700
Cr2894     Cr  0.61770672  0.58228516  0.16268478     1.93200
Cr2895     Cr  0.56484339  0.63074828  0.16170947     1.39100
O2896       O  0.59956883  0.61518160  0.14530639    -1.23300
O2897       O  0.84550524  0.62503081  0.16233882    -0.85600
O2898       O  0.81700921  0.61095172  0.10753933    -0.82600
C2899       C  0.80351778  0.63707059  0.10511425     0.97900
O2900       O  0.81869239  0.66102367  0.09417062    -0.82600
O2901       O  0.87207680  0.69961343  0.08309607    -0.85300
C2902       C  0.87895294  0.71286638  0.10838175     1.02400
O2903       O  0.88579760  0.69701607  0.13240330    -0.78000
O2904       O  0.89248389  0.64533197  0.17113243    -0.78200
C2905       C  0.86515130  0.63618367  0.18108687     1.02400
O2906       O  0.89836941  0.58858324  0.14427394    -0.85500
O2907       O  0.87336281  0.58179626  0.08699321    -0.82600
C2908       C  0.86248613  0.58828184  0.06038471     0.97900
O2909       O  0.84871869  0.61406243  0.05535121    -0.82600
O2910       O  0.90201153  0.64978526  0.05238236    -0.85200
C2911       C  0.92865636  0.66084251  0.05946232     1.02400
O2912       O  0.93189958  0.67298339  0.08640256    -0.78100
O2913       O  0.93384098  0.62067747  0.12269002    -0.78200
C2914       C  0.92601204  0.59425205  0.13420332     1.02400
Cr2915     Cr  0.85965637  0.60409796  0.12424685     1.93700
Cr2916     Cr  0.86108291  0.65542399  0.07364296     1.93200
Cr2917     Cr  0.90856826  0.65789348  0.12710128     1.39100
O2918       O  0.87632416  0.63952853  0.10858243    -1.23300
C2919       C  0.71553663  0.65089162  0.10972273    -0.09400
C2920       C  0.70659632  0.63116393  0.13572536     0.06800
C2921       C  0.73015192  0.61562541  0.15265450    -0.03100
C2922       C  0.76170916  0.61969537  0.14310642    -0.07600
C2923       C  0.77040325  0.63809038  0.11615128     0.06000
C2924       C  0.74694455  0.65371872  0.09932401    -0.02600
Br2925     Br  0.75538749  0.67470531  0.05945898    -0.02300
H2926       H  0.69771175  0.66231181  0.09577007     0.09900
H2927       H  0.77956856  0.60737221  0.15623565     0.07900
Br2928     Br  0.72098676  0.58805991  0.18832732    -0.02700
C2929       C  0.91386037  0.79380955  0.11697017    -0.09400
C2930       C  0.89655116  0.81053238  0.09459467     0.06800
C2931       C  0.87212930  0.79524111  0.07846253    -0.03100
C2932       C  0.86484514  0.76391270  0.08578750    -0.07600
C2933       C  0.88242013  0.74702250  0.10784882     0.06000
C2934       C  0.90717508  0.76220468  0.12369224    -0.02600
Br2935     Br  0.93523875  0.74102008  0.15190302    -0.02300
H2936       H  0.93313594  0.80523492  0.12895977     0.09900
H2937       H  0.84654877  0.75211635  0.07270528     0.07900
Br2938     Br  0.85056250  0.81397122  0.04345458    -0.02700
C2939       C  0.63389279  0.73071728  0.12532720    -0.09400
C2940       C  0.60944190  0.72091226  0.14648746     0.06800
C2941       C  0.59639086  0.74306266  0.16689024    -0.03100
C2942       C  0.60647856  0.77464286  0.16434451    -0.07600
C2943       C  0.62912205  0.78491808  0.14128568     0.06000
C2944       C  0.64382888  0.76223083  0.12260840    -0.02600
Br2945     Br  0.67749028  0.77238579  0.09293495    -0.02300
H2946       H  0.64499280  0.71377788  0.11013761     0.09900
H2947       H  0.59486333  0.79155065  0.17916461     0.07900
Br2948     Br  0.56223063  0.73277460  0.19582832    -0.02700
C2949       C  0.75987426  0.91727092  0.13734140    -0.09400
C2950       C  0.74412553  0.89353128  0.12101161     0.06800
C2951       C  0.76110074  0.87486504  0.09970320    -0.03100
C2952       C  0.79251026  0.88257116  0.09272838    -0.07600
C2953       C  0.80738421  0.90810833  0.10707247     0.06000
C2954       C  0.79129374  0.92471932  0.13066686    -0.02600
Br2955     Br  0.80934622  0.95959741  0.15282741    -0.02300
H2956       H  0.74716911  0.93139811  0.15416785     0.09900
H2957       H  0.80521320  0.86891157  0.07551597     0.07900
Br2958     Br  0.74284104  0.84037065  0.07726275    -0.02700
C2959       C  0.64605466  0.89719108  0.28520293    -0.09400
C2960       C  0.62995492  0.86909497  0.29500379     0.06800
C2961       C  0.61864132  0.84862233  0.27204145    -0.03100
C2962       C  0.62266633  0.85687936  0.24012869    -0.07600
C2963       C  0.63742080  0.88560846  0.23045433     0.06000
C2964       C  0.64948466  0.90573440  0.25326378    -0.02600
Br2965     Br  0.66691393  0.94674371  0.24228548    -0.02300
H2966       H  0.65441767  0.91356482  0.30253855     0.09900
H2967       H  0.61322079  0.84119470  0.22269973     0.07900
Br2968     Br  0.59749664  0.80931446  0.28276528    -0.02700
C2969       C  0.61397360  0.58288177  0.26439444    -0.09400
C2970       C  0.60312432  0.61129173  0.25187336     0.06800
C2971       C  0.58977023  0.63373206  0.27153625    -0.03100
C2972       C  0.58590769  0.62664160  0.30345595    -0.07600
C2973       C  0.59363282  0.59667014  0.31561006     0.06000
C2974       C  0.60850963  0.57482827  0.29577158    -0.02600
Br2975     Br  0.61896661  0.53229480  0.30763042    -0.02300
H2976       H  0.62396590  0.56542786  0.24900747     0.09900
H2977       H  0.57500454  0.64397366  0.31831906     0.07900
Br2978     Br  0.57526225  0.67350815  0.25589030    -0.02700
C2979       C  0.58270039  0.70123316  0.38740399    -0.09400
C2980       C  0.59922760  0.68539462  0.41095359     0.06800
C2981       C  0.62440124  0.70083205  0.42596344    -0.03100
C2982       C  0.63042267  0.73252970  0.41922292    -0.07600
C2983       C  0.61174261  0.74926578  0.39801942     0.06000
C2984       C  0.58865230  0.73301141  0.38074211    -0.02600
Br2985     Br  0.56182181  0.75257660  0.35032553    -0.02300
H2986       H  0.56418818  0.68912609  0.37489043     0.09900
H2987       H  0.64856734  0.74467633  0.43220088     0.07900
Br2988     Br  0.64960666  0.68177460  0.45817385    -0.02700
C2989       C  0.83358536  0.61232748  0.22581961    -0.09400
C2990       C  0.85709135  0.63432883  0.21521182     0.06800
C2991       C  0.87432503  0.65091285  0.23771014    -0.03100
C2992       C  0.87094004  0.64221023  0.26953734    -0.07600
C2993       C  0.85015467  0.61752705  0.27972057     0.06000
C2994       C  0.82991104  0.60392128  0.25774998    -0.02600
Br2995     Br  0.79914613  0.57165417  0.26906116    -0.02300
H2996       H  0.81924912  0.59994477  0.20906592     0.09900
H2997       H  0.88550108  0.65420079  0.28639970     0.07900
Br2998     Br  0.90258586  0.68559059  0.22672151    -0.02700
C2999       C  0.73133195  0.58928592  0.37072094    -0.09400
C3000       C  0.74736993  0.60975841  0.39034154     0.06800
C3001       C  0.73092323  0.62496748  0.41468194    -0.03100
C3002       C  0.69982250  0.61589729  0.42151407    -0.07600
C3003       C  0.68487602  0.59244756  0.40413638     0.06000
C3004       C  0.70058277  0.57990178  0.37774430    -0.02600
Br3005     Br  0.68440200  0.54634767  0.35292071    -0.02300
H3006       H  0.74382124  0.57803997  0.35159919     0.09900
H3007       H  0.68766944  0.62642600  0.44118130     0.07900
Br3008     Br  0.74973029  0.65591739  0.44126734    -0.02700
C3009       C  0.89645174  0.86840317  0.24079081    -0.09400
C3010       C  0.89508888  0.89461090  0.25996946     0.06800
C3011       C  0.89731596  0.92528211  0.24685075    -0.03100
C3012       C  0.90225804  0.92931117  0.21473970    -0.07600
C3013       C  0.90426294  0.90319632  0.19516589     0.06000
C3014       C  0.90015850  0.87240847  0.20831052    -0.02600
Br3015     Br  0.89733780  0.83502787  0.18392346    -0.02300
H3016       H  0.89439391  0.84482033  0.25114091     0.09900
H3017       H  0.90503024  0.95315883  0.20520927     0.07900
Br3018     Br  0.89514281  0.96268426  0.27137215    -0.02700
C3019       C  0.73308989  0.89343345  0.38474473    -0.09400
C3020       C  0.72076210  0.86360259  0.39465410     0.06800
C3021       C  0.74087072  0.83752265  0.39382083    -0.03100
C3022       C  0.77253528  0.84199773  0.38418754    -0.07600
C3023       C  0.78497079  0.87213037  0.37524959     0.06000
C3024       C  0.76446870  0.89799581  0.37526436    -0.02600
Br3025     Br  0.77700943  0.94089595  0.36456199    -0.02300
H3026       H  0.71831442  0.91400784  0.38468017     0.09900
H3027       H  0.78772909  0.82172686  0.38448691     0.07900
Br3028     Br  0.72719192  0.79543785  0.40580355    -0.02700
C3029       C  0.88221451  0.72418638  0.34422025    -0.09400
C3030       C  0.85970386  0.71387613  0.36734813     0.06800
C3031       C  0.84361630  0.73669559  0.38462342    -0.03100
C3032       C  0.85386086  0.76824118  0.38238501    -0.07600
C3033       C  0.87905464  0.77794081  0.36194021     0.06000
C3034       C  0.89158693  0.75594336  0.34104746    -0.02600
Br3035     Br  0.92293519  0.76704205  0.30930883    -0.02300
H3036       H  0.89400047  0.70726522  0.32955303     0.09900
H3037       H  0.84229653  0.78527502  0.39711363     0.07900
Br3038     Br  0.80664849  0.72654178  0.40997837    -0.02700
C3039       C  0.95564842  0.65622441  0.53256853     0.29800
C3040       C  0.50380034  0.63607982  0.99265491     0.29800
C3041       C  0.94627565  0.63887276  0.00647890    -0.06400
C3042       C  0.97489623  0.68492916  0.51972981    -0.07200
C3043       C  0.48296778  0.63178710  0.54567082    -0.07100
C3044       C  0.96979565  0.63203413  0.98419707    -0.06400
C3045       C  0.49931817  0.67394845  0.99964714    -0.07200
C3046       C  0.50678680  0.62371706  0.52359693    -0.07100
C3047       C  0.95481851  0.62764867  0.95619580    -0.32400
N3048       N  0.92355738  0.62942195  0.96167002     0.14100
C3049       C  0.91789363  0.63670728  0.99161961    -0.32500
H3050       H  0.89480478  0.64340392  0.00000327     0.16000
C3051       C  0.51014276  0.70539414  0.99109394    -0.31400
N3052       N  0.99384392  0.73309893  0.50603570     0.12800
C3053       C  0.97203401  0.71707878  0.52420441    -0.31400
C3054       C  0.53391119  0.62058628  0.54021906    -0.31700
N3055       N  0.52802250  0.62704610  0.57055657     0.13300
H3056       H  0.55744069  0.61820855  0.53043030     0.15900
C3057       C  0.49742883  0.63434857  0.57430038    -0.31700
H3058       H  0.48750323  0.64454233  0.59531843     0.15900
H3059       H  0.95481224  0.72784189  0.53934743     0.15900
H3060       H  0.96557485  0.62560907  0.93304344     0.16000
H3061       H  0.52896460  0.71070615  0.97397915     0.15900
C3062       C  0.53469518  0.83933623  0.97603898     0.29800
C3063       C  0.98790989  0.85937026  0.52020859     0.29800
C3064       C  0.00836234  0.86659443  0.96382020    -0.06400
C3065       C  0.51560894  0.81081353  0.98977993    -0.07200
C3066       C  0.54548999  0.85375852  0.50667646    -0.07100
C3067       C  0.98581751  0.87317316  0.48655320    -0.06400
C3068       C  0.99192945  0.82159175  0.51281377    -0.07200
C3069       C  0.02178095  0.86789656  0.52854066    -0.07100
C3070       C  0.95807782  0.88057118  0.96967478    -0.32400
N3071       N  0.96330108  0.87404114  0.93936939     0.14100
C3072       C  0.99347948  0.86534620  0.93528730    -0.32500
H3073       H  0.00250183  0.85444006  0.91424627     0.16000
C3074       C  0.98068583  0.79016321  0.52071856    -0.31400
N3075       N  0.99743019  0.76727207  0.50442415     0.12800
C3076       C  0.51831111  0.77849663  0.98591428    -0.31400
C3077       C  0.53584894  0.86518774  0.55688053    -0.31700
N3078       N  0.56720278  0.86206037  0.55247623     0.13300
H3079       H  0.52441175  0.86893317  0.57945447     0.15900
C3080       C  0.57343800  0.85468181  0.52242511    -0.31700
H3081       H  0.59661000  0.84836287  0.51388314     0.15900
H3082       H  0.53526425  0.76745228  0.97069010     0.15900
H3083       H  0.93474274  0.88376334  0.97958594     0.16000
H3084       H  0.96171203  0.78470805  0.53761952     0.15900
C3085       C  0.63485939  0.51007128  0.99727014     0.29800
C3086       C  0.65376055  0.96766129  0.54453854     0.29800
C3087       C  0.62273974  0.97642131  0.99513216    -0.06400
C3088       C  0.67270216  0.50223584  0.00058015    -0.07200
C3089       C  0.62808318  0.52002853  0.53007952    -0.07100
C3090       C  0.63152678  0.95434663  0.01864926    -0.06400
C3091       C  0.68262808  0.98152742  0.52608825    -0.07200
C3092       C  0.63579296  0.49814607  0.55381168    -0.07100
C3093       C  0.63264179  0.92544260  0.00458060    -0.32400
N3094       N  0.62368569  0.92908019  0.97453121     0.14100
C3095       C  0.61759113  0.95959531  0.96860113    -0.32500
H3096       H  0.61420425  0.96928169  0.94518093     0.16000
C3097       C  0.71491945  0.97801592  0.52971799    -0.31400
N3098       N  0.73098850  0.99714812  0.50870138     0.12800
C3099       C  0.70399131  0.51063199  0.98924296    -0.31400
C3100       C  0.63724090  0.51435066  0.58139309    -0.31700
N3101       N  0.63085396  0.54468509  0.57526442     0.13300
H3102       H  0.64500862  0.50585898  0.60408631     0.15900
C3103       C  0.62642089  0.54895793  0.54413712    -0.31700
H3104       H  0.62367657  0.57171328  0.53254177     0.15900
H3105       H  0.70907837  0.52795143  0.97049664     0.15900
H3106       H  0.64315111  0.90431316  0.01410994     0.16000
H3107       H  0.72571760  0.96293820  0.54702611     0.15900
C3108       C  0.85775829  0.98561591  0.51717344     0.29800
C3109       C  0.83803412  0.52770358  0.96558847     0.29800
C3110       C  0.86586433  0.97695874  0.48344123    -0.06400
C3111       C  0.81984887  0.99328558  0.51328046    -0.07200
C3112       C  0.86891622  0.52044038  0.51392024    -0.07100
C3113       C  0.85613734  0.00202641  0.95663637    -0.06400
C3114       C  0.80944375  0.51296120  0.98380388    -0.07200
C3115       C  0.86030313  0.54284968  0.49056636    -0.07100
C3116       C  0.85405183  0.98579761  0.92916605    -0.32400
N3117       N  0.86044365  0.95553918  0.93531860     0.14100
C3118       C  0.86525948  0.95110177  0.96623339    -0.32500
H3119       H  0.86800545  0.92825518  0.97762461     0.16000
C3120       C  0.77706188  0.51622026  0.98074125    -0.31400
N3121       N  0.76307883  0.50027266  0.50180014     0.12800
C3122       C  0.78828067  0.98415309  0.52336631    -0.31400
C3123       C  0.85773610  0.57128810  0.50553396    -0.31700
N3124       N  0.86506907  0.56706259  0.53598842     0.13300
H3125       H  0.84713797  0.59241739  0.49610171     0.15900
C3126       C  0.87222728  0.53669253  0.54119739    -0.31700
H3127       H  0.87483752  0.52641962  0.56448476     0.15900
H3128       H  0.78283962  0.96626599  0.54146635     0.15900
H3129       H  0.84596149  0.99416614  0.90654952     0.16000
H3130       H  0.76585503  0.53136757  0.96377904     0.15900
C3131       C  0.98535243  0.99066623  0.64689032     0.29800
C3132       C  0.52691424  0.53668873  0.66077212     0.29800
C3133       C  0.97399466  0.52427069  0.63342458    -0.06400
C3134       C  0.99095432  0.99588362  0.68484163    -0.07200
C3135       C  0.01949760  0.98772783  0.63495828    -0.07100
C3136       C  0.99576344  0.54834628  0.64039135    -0.06400
C3137       C  0.51310438  0.51794930  0.68943091    -0.07200
C3138       C  0.54093026  0.00992961  0.64045553    -0.07100
C3139       C  0.97929010  0.57583590  0.64086949    -0.32400
N3140       N  0.94909574  0.56927266  0.63470703     0.14100
C3141       C  0.94495818  0.53809977  0.63126327    -0.32500
H3142       H  0.92218012  0.52643728  0.62928902     0.16000
C3143       C  0.51697053  0.52099724  0.72163351    -0.31400
N3144       N  0.99655109  0.50331115  0.73535222     0.12800
C3145       C  0.98116530  0.98584200  0.71619875    -0.31400
C3146       C  0.56948671  0.99525837  0.64303129    -0.31700
N3147       N  0.56537873  0.96478810  0.63577268     0.13300
H3148       H  0.59062822  0.00488409  0.65331872     0.15900
C3149       C  0.53507123  0.95918058  0.62910378    -0.31700
H3150       H  0.52508828  0.93574575  0.62680673     0.15900
H3151       H  0.96362773  0.96729965  0.72136639     0.15900
H3152       H  0.98727388  0.59884548  0.64811474     0.16000
H3153       H  0.53212133  0.53807185  0.73248804     0.15900
C3154       C  0.51022028  0.50660866  0.86414041     0.29800
C3155       C  0.96458160  0.96283538  0.85038917     0.29800
C3156       C  0.97736303  0.51368241  0.87608531    -0.06400
C3157       C  0.50350552  0.50225037  0.82618800    -0.07200
C3158       C  0.51825735  0.97351190  0.87252392    -0.07100
C3159       C  0.95547831  0.48967103  0.86823787    -0.06400
C3160       C  0.97814978  0.98185552  0.82173828    -0.07200
C3161       C  0.49631817  0.94992992  0.86502992    -0.07100
C3162       C  0.92636111  0.50345712  0.86778866    -0.32400
N3163       N  0.92981447  0.53371719  0.87615880     0.14100
C3164       C  0.96032400  0.54009042  0.88143705    -0.32500
H3165       H  0.96973462  0.56371466  0.88409415     0.16000
C3166       C  0.97459231  0.97867661  0.78944688    -0.31400
N3167       N  0.99347839  0.00009773  0.77359160     0.12800
C3168       C  0.51186989  0.51320145  0.79473806    -0.31400
C3169       C  0.51203302  0.92196304  0.86507799    -0.31700
N3170       N  0.54215288  0.92779319  0.87213075     0.13300
H3171       H  0.50364779  0.89911926  0.85773509     0.15900
C3172       C  0.54688795  0.95899985  0.87555365    -0.31700
H3173       H  0.56976994  0.97020400  0.87839385     0.15900
H3174       H  0.52877431  0.53223463  0.78937069     0.15900
H3175       H  0.90508770  0.49358798  0.85798601     0.16000
H3176       H  0.95975556  0.96141490  0.77853030     0.15900
O3177       O  0.83594193  0.85289712  0.88132691    -0.85600
O3178       O  0.89131152  0.82418759  0.89615446    -0.82600
C3179       C  0.89306908  0.81000687  0.87051265     0.97900
O3180       O  0.90380277  0.82494513  0.84631966    -0.82600
O3181       O  0.91643604  0.87787465  0.80747777    -0.85300
C3182       C  0.89121154  0.88502356  0.79417204     1.02400
O3183       O  0.86746823  0.89320723  0.80969620    -0.78000
O3184       O  0.82861001  0.90016524  0.86095416    -0.78200
C3185       C  0.81762892  0.87349995  0.87077380     1.02400
O3186       O  0.85382688  0.90500212  0.91761516    -0.85500
O3187       O  0.91170827  0.88031942  0.92470178    -0.82600
C3188       C  0.93854573  0.86992144  0.91792792     0.97900
O3189       O  0.94313673  0.85491519  0.89299112    -0.82600
O3190       O  0.94812975  0.90790509  0.85682704    -0.85200
C3191       C  0.94093301  0.93485966  0.84620769     1.02400
O3192       O  0.91380517  0.93846204  0.83438033    -0.78100
O3193       O  0.87651789  0.94057302  0.88633125    -0.78200
C3194       C  0.86357077  0.93272519  0.91211152     1.02400
Cr3195     Cr  0.87432839  0.86658022  0.90245818     1.93700
Cr3196     Cr  0.92543981  0.86716843  0.85162399     1.93200
Cr3197     Cr  0.87270301  0.91566917  0.84886442     1.39100
O3198       O  0.89060609  0.88312438  0.86725125    -1.23300
O3199       O  0.88388859  0.60641588  0.82955610    -0.85600
O3200       O  0.86867781  0.65997513  0.86049236    -0.82600
C3201       C  0.85877163  0.67729433  0.88207207     0.97900
O3202       O  0.84882013  0.66497367  0.90808825    -0.82600
O3203       O  0.79782540  0.62657281  0.89809867    -0.85300
C3204       C  0.78228016  0.60278619  0.89024215     1.02400
O3205       O  0.79593762  0.57781750  0.88276402    -0.78000
O3206       O  0.83432396  0.59189660  0.82999132    -0.78200
C3207       C  0.85832642  0.60324379  0.81521607     1.02400
O3208       O  0.91310196  0.58391821  0.88494645    -0.85500
O3209       O  0.90498551  0.63951033  0.91209015    -0.82600
C3210       C  0.89991379  0.62768612  0.93908926     0.97900
O3211       O  0.87386136  0.61495213  0.94657419    -0.82600
O3212       O  0.82126045  0.57843516  0.94207435    -0.85200
C3213       C  0.83388799  0.55177154  0.93818548     1.02400
O3214       O  0.84573369  0.54572338  0.91155225    -0.78100
O3215       O  0.88193412  0.55265286  0.85885698    -0.78200
C3216       C  0.90710200  0.55750877  0.87354778     1.02400
Cr3217     Cr  0.89018095  0.62124567  0.87266085     1.93700
Cr3218     Cr  0.83645681  0.62030659  0.92135390     1.93200
Cr3219     Cr  0.84015263  0.56940552  0.87158901     1.39100
O3220       O  0.85523569  0.60385893  0.88844642    -1.23300
O3221       O  0.55962010  0.64360652  0.91771918    -0.85600
O3222       O  0.57017579  0.60943387  0.86695486    -0.82600
C3223       C  0.58188176  0.58931174  0.84929901     0.97900
O3224       O  0.58595330  0.56164954  0.85943609    -0.82600
O3225       O  0.63504523  0.57093894  0.89600352    -0.85300
C3226       C  0.65244461  0.58098991  0.91704234     1.02400
O3227       O  0.64184233  0.58561056  0.94428868    -0.78000
O3228       O  0.60718914  0.63557848  0.93406836    -0.78200
C3229       C  0.58716091  0.65347548  0.92274888     1.02400
O3230       O  0.51917269  0.60066247  0.94667987    -0.85500
O3231       O  0.52580254  0.56052781  0.88524219    -0.82600
C3232       C  0.53221909  0.53095175  0.88383542     0.97900
O3233       O  0.55493543  0.52122876  0.90133103    -0.82600
O3234       O  0.61493118  0.52635495  0.94340010    -0.85200
C3235       C  0.61570232  0.53239222  0.97299331     1.02400
O3236       O  0.59824419  0.55511831  0.98258842    -0.78100
O3237       O  0.55777763  0.61597764  0.97691013    -0.78200
C3238       C  0.52834871  0.61731535  0.97015913     1.02400
Cr3239     Cr  0.54605906  0.60041994  0.90616640     1.93700
Cr3240     Cr  0.59564830  0.54741465  0.90312256     1.93200
Cr3241     Cr  0.59812670  0.59612266  0.95690152     1.39100
O3242       O  0.57845500  0.57984129  0.92347392    -1.23300
O3243       O  0.67214035  0.88549966  0.90434076    -0.85600
O3244       O  0.64501560  0.87323496  0.84790580    -0.82600
C3245       C  0.62527313  0.86291665  0.82873510     0.97900
O3246       O  0.59805986  0.85264301  0.83844883    -0.82600
O3247       O  0.60243029  0.79981030  0.87671092    -0.85300
C3248       C  0.61098722  0.78359405  0.89990423     1.02400
O3249       O  0.61817807  0.79637834  0.92532985    -0.78000
O3250       O  0.67076915  0.83502451  0.91383741    -0.78200
C3251       C  0.68584253  0.85946571  0.90426336     1.02400
O3252       O  0.61536365  0.91356714  0.92398859    -0.85500
O3253       O  0.59255843  0.90915457  0.86549592    -0.82600
C3254       C  0.56474293  0.90404983  0.87504815     0.97900
O3255       O  0.55646747  0.87788398  0.88702877    -0.82600
O3256       O  0.55767011  0.82500949  0.92379019    -0.85200
C3257       C  0.56192700  0.83519035  0.95156929     1.02400
O3258       O  0.58899496  0.84478486  0.95891744    -0.78100
O3259       O  0.64093753  0.88130011  0.95494643    -0.78200
C3260       C  0.62635923  0.90676027  0.95044802     1.02400
Cr3261     Cr  0.63023465  0.89282367  0.88649881     1.93700
Cr3262     Cr  0.58094903  0.83979769  0.88258182     1.93200
Cr3263     Cr  0.62904489  0.84018818  0.93577078     1.39100
O3264       O  0.61336389  0.85711105  0.90133103    -1.23300
O3265       O  0.62381561  0.83815316  0.65445602    -0.85600
O3266       O  0.61098721  0.89201459  0.68446896    -0.83600
C3267       C  0.63768574  0.89445432  0.69683255     0.97900
O3268       O  0.66086663  0.90575923  0.68079122    -0.82600
O3269       O  0.69769245  0.91853978  0.62728844    -0.85300
C3270       C  0.71069763  0.89315824  0.62031215     1.02400
O3271       O  0.69494991  0.86940632  0.61237752    -0.78000
O3272       O  0.64282179  0.83014249  0.60683515    -0.78200
C3273       C  0.63340765  0.81962551  0.63391335     1.02400
O3274       O  0.58551638  0.85702368  0.60329774    -0.85500
O3275       O  0.58022444  0.91376575  0.62909739    -0.82600
C3276       C  0.58722986  0.94039451  0.63938743     0.97900
O3277       O  0.61281319  0.94507791  0.65335605    -0.82600
O3278       O  0.64715362  0.95054006  0.59910578    -0.85200
C3279       C  0.65760426  0.94351854  0.57216386     1.02400
O3280       O  0.66893752  0.91616979  0.56825212    -0.78100
O3281       O  0.61648413  0.87884434  0.56692163    -0.78200
C3282       C  0.59061123  0.86626672  0.57527975     1.02400
Cr3283     Cr  0.60263262  0.87645735  0.64167241     1.93700
Cr3284     Cr  0.65377150  0.92751646  0.63934386     1.93200
Cr3285     Cr  0.65482170  0.87472340  0.59106412     1.39100
O3286       O  0.63744870  0.89267385  0.62402640    -1.23300
O3287       O  0.88543367  0.86188043  0.58276275    -0.85600
O3288       O  0.85192542  0.91251977  0.57243670    -0.82600
C3289       C  0.84175827  0.91591322  0.60009684     0.97900
O3290       O  0.85982725  0.92580234  0.62063070    -0.82600
O3291       O  0.91120608  0.93570732  0.65415358    -0.85300
C3292       C  0.91563978  0.90808971  0.66430890     1.02400
O3293       O  0.92616432  0.88774072  0.64647936    -0.78000
O3294       O  0.93352246  0.85290822  0.59647806    -0.78200
C3295       C  0.90529301  0.84363762  0.59369323     1.02400
O3296       O  0.93402599  0.87923596  0.53726691    -0.85500
O3297       O  0.89457469  0.94074876  0.53185659    -0.82600
C3298       C  0.87723385  0.96356302  0.54145865     0.97900
O3299       O  0.87841654  0.96984812  0.57104226    -0.82600
O3300       O  0.93987204  0.97569237  0.61079596    -0.85200
C3301       C  0.96313111  0.96617946  0.62765305     1.02400
O3302       O  0.96965328  0.93657825  0.62623858    -0.78100
O3303       O  0.97373309  0.89569346  0.56542706    -0.78200
C3304       C  0.96377687  0.87835708  0.54284216     1.02400
Cr3305     Cr  0.89468146  0.90036907  0.55837531     1.93700
Cr3306     Cr  0.89914658  0.94947030  0.61112656     1.93200
Cr3307     Cr  0.94853026  0.89629121  0.60670424     1.39100
O3308       O  0.91569742  0.91694213  0.59055442    -1.23300
O3309       O  0.59931466  0.67657187  0.61621487    -0.85600
O3310       O  0.65437684  0.64847768  0.62880385    -0.82600
C3311       C  0.67331537  0.62925145  0.64045034     0.97900
O3312       O  0.66348712  0.60228854  0.65103767    -0.82600
O3313       O  0.62309445  0.60793329  0.70231430    -0.85300
C3314       C  0.59895923  0.61554898  0.71779794     1.02400
O3315       O  0.57340610  0.62054808  0.70416593    -0.78000
O3316       O  0.58618605  0.67331941  0.66614071    -0.78200
C3317       C  0.59767397  0.68900505  0.64286138     1.02400
O3318       O  0.57891113  0.61997033  0.58647667    -0.85500
O3319       O  0.63663054  0.59578957  0.59255008    -0.82600
C3320       C  0.62818604  0.56771559  0.59864824     0.97900
O3321       O  0.61700029  0.55960798  0.62520748    -0.82600
O3322       O  0.57808379  0.56127306  0.67638433    -0.85200
C3323       C  0.55071188  0.56453459  0.66465975     1.02400
O3324       O  0.54318518  0.59116875  0.65369380    -0.78100
O3325       O  0.54720082  0.64475111  0.61824803    -0.78200
C3326       C  0.55215190  0.63048694  0.59287783     1.02400
Cr3327     Cr  0.61609772  0.63403157  0.60855273     1.93700
Cr3328     Cr  0.61929411  0.58513859  0.66269049     1.93200
Cr3329     Cr  0.56500766  0.63175390  0.65968630     1.39100
O3330       O  0.60039143  0.61687271  0.64391803    -1.23300
O3331       O  0.84783892  0.62497776  0.66437225    -0.85600
O3332       O  0.81637491  0.61331257  0.61019186    -0.82600
C3333       C  0.80447927  0.64029656  0.60821829     0.97900
O3334       O  0.82039017  0.66306855  0.59596423    -0.82600
O3335       O  0.87375068  0.70023581  0.58297806    -0.85300
C3336       C  0.88088397  0.71236830  0.60885886     1.02400
O3337       O  0.88814654  0.69554050  0.63201523    -0.78000
O3338       O  0.89592832  0.64375016  0.66939129    -0.78200
C3339       C  0.86974502  0.63419616  0.68167826     1.02400
O3340       O  0.89852475  0.58720256  0.64288333    -0.85500
O3341       O  0.87078858  0.58155593  0.58735731    -0.82600
C3342       C  0.86094027  0.58882153  0.56057190     0.97900
O3343       O  0.84710420  0.61465739  0.55585241    -0.82600
O3344       O  0.90107850  0.64918897  0.54974467    -0.85200
C3345       C  0.92795973  0.66003146  0.55650388     1.02400
O3346       O  0.93178483  0.67164953  0.58362450    -0.78100
O3347       O  0.93386154  0.61846647  0.61951845    -0.78200
C3348       C  0.92603792  0.59248285  0.63215740     1.02400
Cr3349     Cr  0.85936589  0.60429504  0.62491616     1.93700
Cr3350     Cr  0.86124401  0.65588222  0.57345505     1.93200
Cr3351     Cr  0.91004439  0.65639932  0.62511212     1.39100
O3352       O  0.87681478  0.63910604  0.60801276    -1.23300
C3353       C  0.71774249  0.65903517  0.61353231    -0.09400
C3354       C  0.70748119  0.63737786  0.63758238     0.06800
C3355       C  0.73030949  0.62201665  0.65562780    -0.03100
C3356       C  0.76213984  0.62498080  0.64666024    -0.07600
C3357       C  0.77191832  0.64375258  0.62033485     0.06000
C3358       C  0.74970600  0.66258231  0.60505102    -0.02600
Br3359     Br  0.76106569  0.69120795  0.57077122    -0.02300
H3360       H  0.70073911  0.67200798  0.59990226     0.09900
H3361       H  0.77931125  0.61170825  0.65980729     0.07900
Br3362     Br  0.71962267  0.59712879  0.69278066    -0.02700
C3363       C  0.91738617  0.79229772  0.61816196    -0.09400
C3364       C  0.89578789  0.81103529  0.60207337     0.06800
C3365       C  0.86638942  0.79760011  0.59335288    -0.03100
C3366       C  0.86132654  0.76522886  0.59702575    -0.07600
C3367       C  0.88413161  0.74637640  0.61080247     0.06000
C3368       C  0.91164021  0.76022918  0.62297924    -0.02600
Br3369     Br  0.94387621  0.73653368  0.64357698    -0.02300
H3370       H  0.93941766  0.80235872  0.62617794     0.09900
H3371       H  0.83975145  0.75457537  0.58852168     0.07900
Br3372     Br  0.83208836  0.82080117  0.57570434    -0.02700
C3373       C  0.63674678  0.73091004  0.62771700    -0.09400
C3374       C  0.60963624  0.72160503  0.64558023     0.06800
C3375       C  0.59396940  0.74404277  0.66364142    -0.03100
C3376       C  0.60332080  0.77573643  0.66068284    -0.07600
C3377       C  0.62877390  0.78549216  0.64060313     0.06000
C3378       C  0.64674968  0.76249711  0.62564198    -0.02600
Br3379     Br  0.68568924  0.77273974  0.60356209    -0.02300
H3380       H  0.65004623  0.71354003  0.61497945     0.09900
H3381       H  0.58955385  0.79299081  0.67308120     0.07900
Br3382     Br  0.55829607  0.73340061  0.69065552    -0.02700
C3383       C  0.76211528  0.90677016  0.64168797    -0.09400
C3384       C  0.74468036  0.89337069  0.61760623     0.06800
C3385       C  0.75909890  0.88727652  0.58844696    -0.03100
C3386       C  0.79086482  0.89418068  0.58389314    -0.07600
C3387       C  0.80859385  0.90820657  0.60758857     0.06000
C3388       C  0.79386644  0.91474486  0.63686740    -0.02600
Br3389     Br  0.81381495  0.93722501  0.67011867    -0.02300
H3390       H  0.75045364  0.91276315  0.66365188     0.09900
H3391       H  0.80134197  0.88960512  0.56101298     0.07900
Br3392     Br  0.73591071  0.87436138  0.55232806    -0.02700
C3393       C  0.65143102  0.89388093  0.78464154    -0.09400
C3394       C  0.63298952  0.86724494  0.79461839     0.06800
C3395       C  0.62080245  0.84726469  0.77166277    -0.03100
C3396       C  0.62404116  0.85594383  0.73976115    -0.07600
C3397       C  0.64028470  0.88386441  0.73000849     0.06000
C3398       C  0.65540737  0.90210093  0.75263352    -0.02600
Br3399     Br  0.67926722  0.93977080  0.74134642    -0.02300
H3400       H  0.66161449  0.90932754  0.80185843     0.09900
H3401       H  0.61332172  0.84099370  0.72241538     0.07900
Br3402     Br  0.60097649  0.80732497  0.78237000    -0.02700
C3403       C  0.61728396  0.59093227  0.76669565    -0.09400
C3404       C  0.59902655  0.61409483  0.75225238     0.06800
C3405       C  0.57736818  0.63105370  0.77057172    -0.03100
C3406       C  0.57284304  0.62304911  0.80233390    -0.07600
C3407       C  0.58936898  0.59814005  0.81628559     0.06000
C3408       C  0.61236841  0.58250642  0.79826928    -0.02600
Br3409     Br  0.63753067  0.54898306  0.81434204    -0.02300
H3410       H  0.63403319  0.57772623  0.75287637     0.09900
H3411       H  0.55550127  0.63575961  0.81589790     0.07900
Br3412     Br  0.55314803  0.66517114  0.75378024    -0.02700
C3413       C  0.58054615  0.70109149  0.88999504    -0.09400
C3414       C  0.59608366  0.68599562  0.91476117     0.06800
C3415       C  0.62011262  0.70207898  0.93073674    -0.03100
C3416       C  0.62720385  0.73320413  0.92241364    -0.07600
C3417       C  0.60982229  0.74920049  0.89948841     0.06000
C3418       C  0.58710806  0.73254735  0.88218369    -0.02600
Br3419     Br  0.56201378  0.75122948  0.84975351    -0.02300
H3420       H  0.56262023  0.68855637  0.87708232     0.09900
H3421       H  0.64482266  0.74571178  0.93575376     0.07900
Br3422     Br  0.64162504  0.68486294  0.96655922    -0.02700
C3423       C  0.83589354  0.62593936  0.73061166    -0.09400
C3424       C  0.86621012  0.62982135  0.71637872     0.06800
C3425       C  0.89289098  0.62548498  0.73524186    -0.03100
C3426       C  0.88897086  0.61656602  0.76672100    -0.07600
C3427       C  0.85896610  0.61198790  0.78106383     0.06000
C3428       C  0.83206521  0.61745975  0.76276383    -0.02600
Br3429     Br  0.78991220  0.61474990  0.78021462    -0.02300
H3430       H  0.81505537  0.62924824  0.71662308     0.09900
H3431       H  0.91017236  0.61273439  0.78000772     0.07900
Br3432     Br  0.93602087  0.62875677  0.72008563    -0.02700
C3433       C  0.73239034  0.57639409  0.87965438    -0.09400
C3434       C  0.74806708  0.60179912  0.89351352     0.06800
C3435       C  0.73177056  0.62069973  0.91525768    -0.03100
C3436       C  0.70024569  0.61370692  0.92243285    -0.07600
C3437       C  0.68534998  0.58745194  0.90947085     0.06000
C3438       C  0.70186061  0.56815209  0.88870953    -0.02600
Br3439     Br  0.68633696  0.52747501  0.87641677    -0.02300
H3440       H  0.74479901  0.56102911  0.86376106     0.09900
H3441       H  0.68754612  0.62830688  0.93882694     0.07900
Br3442     Br  0.75118064  0.65395552  0.93869890    -0.02700
C3443       C  0.91121486  0.86663098  0.74382688    -0.09400
C3444       C  0.89157307  0.88713835  0.76010673     0.06800
C3445       C  0.87848043  0.91316816  0.74432030    -0.03100
C3446       C  0.88697385  0.91936102  0.71313598    -0.07600
C3447       C  0.90770616  0.89970468  0.69704014     0.06000
C3448       C  0.91941132  0.87253587  0.71244034    -0.02600
Br3449     Br  0.94829026  0.84353522  0.69367618    -0.02300
H3450       H  0.92148290  0.84670370  0.75608069     0.09900
H3451       H  0.87757126  0.94008254  0.70157010     0.07900
Br3452     Br  0.85135558  0.94303960  0.76416795    -0.02700
C3453       C  0.72946889  0.88631717  0.87492228    -0.09400
C3454       C  0.71892538  0.85954498  0.89260665     0.06800
C3455       C  0.74041501  0.83547892  0.89914503    -0.03100
C3456       C  0.77206079  0.83956806  0.88951953    -0.07600
C3457       C  0.78308046  0.86763948  0.87400513     0.06000
C3458       C  0.76096617  0.89088707  0.86606945    -0.02600
Br3459     Br  0.77120574  0.93064831  0.84513703    -0.02300
H3460       H  0.71319452  0.90476653  0.86871904     0.09900
H3461       H  0.78842757  0.82126250  0.89584059     0.07900
Br3462     Br  0.72902036  0.79787274  0.92312294    -0.02700
C3463       C  0.87260872  0.72492710  0.84846688    -0.09400
C3464       C  0.86305966  0.71198168  0.87818598     0.06800
C3465       C  0.86209036  0.73205011  0.90421581    -0.03100
C3466       C  0.87177582  0.76339601  0.90038164    -0.07600
C3467       C  0.88267248  0.77622946  0.87111717     0.06000
C3468       C  0.88218533  0.75670861  0.84467306    -0.02600
Br3469     Br  0.89410013  0.77148931  0.80297819    -0.02300
H3470       H  0.87335954  0.71007561  0.82805482     0.09900
H3471       H  0.87112246  0.77772853  0.92115653     0.07900
Br3472     Br  0.84988828  0.71894383  0.94656588    -0.02700
loop_ 
_geom_bond_atom_site_label_1 
_geom_bond_atom_site_label_2 
_geom_bond_distance 
_geom_bond_site_symmetry_2 
_ccdc_geom_bond_type 
C1            C4   1.543       .  S
C1          C307   1.556       .  S
C1          C437   1.518       .  S
C1         C1741   1.521       .  S
C2            C7   1.658       .  S
C2          C200   1.641       .  S
C2         C1742   1.523   1_455  S
C2          C442   1.536       .  S
C3          C435   1.528       .  S
C3           C11   1.370       .  A
C3            C6   1.406       .  A
C4           C15   1.392       .  A
C4         C2177   1.428   1_554  A
C5         C1737   1.520       .  S
C5           C19   1.379       .  A
C5            C8   1.409   1_655  A
C6         C1738   1.520       .  S
C6            C9   1.375       .  A
C7           C13   1.441       .  A
C7         C2174   1.430   1_455  A
C8          C436   1.534   1_554  S
C8           C16   1.369       .  A
C9           N10   1.341       .  A
C9           H22   1.082       .  S
N10          C11   1.338       .  A
N10         C172   1.404       .  S
C11          H12   1.081       .  S
C13        N2184   1.402   1_455  A
C13          H23   1.085       .  S
N14          C15   1.358       .  A
N14        C2183   1.400   1_554  A
N14          N37   1.457       .  S
C15          H21   1.078       .  S
C16          N17   1.344       .  A
C16          H18   1.080       .  S
N17          C19   1.344   1_455  A
N17         C288   1.416       .  S
C19          H20   1.081       .  S
C24          C27   1.537       .  S
C24         C219   1.544       .  S
C24        C1762   1.520       .  S
C24         C462   1.529       .  S
C25          C29   1.532   1_554  S
C25          C31   1.524       .  S
C25          C30   1.655       .  S
C25         C266   1.640       .  S
C26        C1760   1.523       .  S
C26          C34   1.382       .  A
C26         C463   1.414       .  A
C27          C38   1.390       .  A
C27        C2200   1.425   1_455  A
C28         C458   1.529   1_554  S
C28          C42   1.370       .  A
C28        C1767   1.399       .  A
C29         C460   1.418       .  A
C29         C466   1.365       .  A
C30          C36   1.438       .  A
C30        C2197   1.430   1_554  A
C31        C1764   1.404       .  A
C31        C1775   1.379       .  A
C32         C463   1.370       .  A
C32          N33   1.344       .  A
C32          H45   1.081       .  S
N33          C34   1.346       .  A
N33         C150   1.420       .  S
C34          H35   1.081       .  S
C36          N37   1.401       .  A
C36          H46   1.085       .  S
N37        C2208   1.357   1_554  A
C38        N2207   1.356       .  A
C38          H44   1.078       .  S
C39        C1767   1.374       .  A
C39          N40   1.345       .  A
C39          H41   1.082       .  S
N40          C42   1.340       .  A
N40         C244   1.406       .  S
C42          H43   1.080       .  S
C47          C50   1.649       .  S
C47         C197   1.625       .  S
C47         C917   1.536   1_545  S
C47         C485   1.526       .  S
C48          C53   1.534       .  S
C48         C241   1.550       .  S
C48         C486   1.522       .  S
C48         C922   1.528       .  S
C49         C915   1.533       .  S
C49          C57   1.368       .  A
C49          C52   1.414       .  A
C50          C61   1.436       .  A
C50        C1355   1.426   1_545  A
C51         C481   1.519   1_554  S
C51          C65   1.373       .  A
C51          C54   1.404       .  A
C52         C482   1.524       .  S
C52          C55   1.383       .  A
C53          C59   1.389       .  A
C53        C1352   1.427   1_554  A
C54         C916   1.525   1_545  S
C54          C62   1.368       .  A
C55          N56   1.346       .  A
C55          H68   1.081       .  S
N56          C57   1.339       .  A
N56         C222   1.418       .  S
C57          H58   1.080       .  S
C59          N60   1.354       .  A
C59          H69   1.077       .  S
N60        C1363   1.403   1_554  A
N60         N951   1.457       .  S
C61        N1362   1.399   1_545  A
C61          H67   1.086       .  S
C62          N63   1.337       .  A
C62          H64   1.081       .  S
N63          C65   1.342       .  A
N63         C282   1.400       .  S
C65          H66   1.082       .  S
C70          C72   1.523   1_554  S
C70          C73   1.660       .  S
C70         C260   1.628       .  S
C70         C942   1.534       .  S
C71          C76   1.538       .  S
C71         C175   1.559       .  S
C71         C943   1.532   1_545  S
C71         C511   1.518       .  S
C72         C514   1.377       .  A
C72         C509   1.395       .  A
C73          C84   1.442       .  A
C73        C1378   1.426   1_554  A
C74         C938   1.532   1_545  S
C74          C88   1.367       .  A
C74          C77   1.419   1_554  A
C75         C939   1.526       .  S
C75          C78   1.371       .  A
C75         C506   1.400       .  A
C76          C82   1.387       .  A
C76        C1375   1.430   1_545  A
C77         C505   1.524       .  S
C77          C85   1.375   1_556  A
C78          N79   1.337       .  A
C78          H91   1.081       .  S
N79          C80   1.345       .  A
N79         C156   1.409       .  S
C80         C506   1.380       .  A
C80          H81   1.082       .  S
C82         N517   1.356   1_545  A
C82          H92   1.077       .  S
N83         C516   1.356   1_564  A
N83         C952   1.403       .  A
N83         N928   1.459       .  S
C84         N951   1.403       .  A
C84          H90   1.085       .  S
C85          N86   1.345       .  A
C85          H87   1.082       .  S
N86          C88   1.340       .  A
N86         C304   1.412       .  S
C88          H89   1.080       .  S
C93          C97   1.530       .  S
C93          C96   1.663       .  S
C93         C263   1.639       .  S
C93         C963   1.519       .  S
C94          C99   1.535       .  S
C94         C285   1.561       .  S
C94        C1834   1.526   1_455  S
C94         C968   1.521       .  S
C95         C961   1.527   1_545  S
C95         C103   1.377       .  A
C95          C98   1.400       .  A
C96         C107   1.444       .  A
C96        C2703   1.427       .  A
C97        C1847   1.361       .  A
C97        C1836   1.417       .  A
C98        C1830   1.525       .  S
C98         C101   1.367       .  A
C99         C105   1.386       .  A
C99        C2700   1.429   1_445  A
C100        C962   1.519       .  S
C100        C108   1.377       .  A
C100       C1833   1.416       .  A
C101        N102   1.336       .  A
C101        H114   1.080       .  S
N102        C103   1.347       .  A
N102        C310   1.405       .  S
C103        H104   1.082       .  S
C105       N1842   1.353   1_455  A
C105        H115   1.077       .  S
N106       C1841   1.355   1_565  A
N106        C975   1.400       .  A
N106        N997   1.455       .  S
C107        N974   1.404       .  A
C107        H113   1.085       .  S
C108        N109   1.343       .  A
C108        H110   1.082       .  S
N109        C111   1.343       .  A
N109        C238   1.413       .  S
C111       C1833   1.367       .  A
C111        H112   1.080       .  S
C116        C119   1.659       .  S
C116        C194   1.633       .  S
C116       C1854   1.529   1_455  S
C116        C988   1.525   1_545  S
C117        C122   1.535       .  S
C117        C153   1.541       .  S
C117        C989   1.520       .  S
C117       C1859   1.531       .  S
C118       C1852   1.532       .  S
C118        C126   1.361       .  A
C118        C121   1.418   1_545  A
C119        C130   1.440       .  A
C119       C2726   1.428   1_445  A
C120        C984   1.519       .  S
C120        C134   1.380       .  A
C120        C123   1.396   1_455  A
C121        C985   1.515       .  S
C121        C124   1.370   1_565  A
C122        C128   1.390       .  A
C122       C2723   1.427       .  A
C123       C1853   1.537       .  S
C123        C131   1.379   1_655  A
C124        N125   1.342       .  A
C124        H137   1.082   1_545  S
N125        C126   1.340       .  A
N125        C178   1.404       .  S
C126        H127   1.080       .  S
C128        N129   1.354       .  A
C128        H138   1.076       .  S
N129       C2734   1.403       .  A
N129        N974   1.457       .  S
C130       N2733   1.402   1_445  A
C130        H136   1.084       .  S
C131        N132   1.342       .  A
C131        H133   1.080       .  S
N132        C134   1.343       .  A
N132        C216   1.414       .  S
C134        H135   1.082       .  S
O139       Cr157   1.952       .  S
O139        C147   1.257       .  A
O140       Cr157   1.980       .  S
O140        C141   1.258       .  A
C141        O142   1.263       .  A
C141        C429   1.464       .  S
O142       Cr158   1.993       .  S
O143       Cr158   1.989       .  S
O143        C144   1.264       .  A
C144        O145   1.251       .  A
C144        C406   1.454       .  S
O145       Cr159   1.947       .  S
O146       Cr159   2.037       .  S
O146        C147   1.276       .  A
C147        C419   1.479       .  S
O148       Cr157   1.985       .  S
O148        C156   1.257       .  A
O149       Cr157   1.940       .  S
O149        C150   1.254       .  A
C150        O151   1.266       .  A
O151       Cr158   2.007       .  S
O152       Cr158   1.957       .  S
O152        C153   1.256       .  A
C153        O154   1.273       .  A
O154       Cr159   2.054       .  S
O155       Cr159   1.941       .  S
O155        C156   1.251       .  A
Cr157       O160   1.762       .  S
Cr158       O160   1.762       .  S
Cr159       O160   1.766       .  S
O161       Cr179   1.966       .  S
O161        C169   1.258       .  A
O162       Cr179   1.946       .  S
O162        C163   1.256       .  A
C163        O164   1.278       .  A
C163        C426   1.471       .  S
O164       Cr180   2.044       .  S
O165       Cr180   1.942       .  S
O165        C166   1.248       .  A
C166        O167   1.258       .  A
C166        C396   1.439       .  S
O167       Cr181   1.970       .  S
O168       Cr181   1.998       .  S
O168        C169   1.264       .  A
C169        C389   1.466       .  S
O170       Cr179   1.928       .  S
O170        C178   1.253       .  A
O171       Cr179   1.979       .  S
O171        C172   1.255       .  A
C172        O173   1.249       .  A
O173       Cr180   1.932       .  S
O174       Cr180   2.076       .  S
O174        C175   1.281       .  A
C175        O176   1.258       .  A
O176       Cr181   1.964       .  S
O177       Cr181   1.986       .  S
O177        C178   1.263       .  A
Cr179       O182   1.758       .  S
Cr180       O182   1.755       .  S
Cr181       O182   1.762       .  S
O183       Cr201   1.979       .  S
O183        C191   1.257       .  A
O184       Cr201   1.965       .  S
O184        C185   1.251       .  A
C185        O186   1.250       .  A
C185        C369   1.465       .  S
O186       Cr202   1.971       .  S
O187       Cr202   1.940       .  S
O187        C188   1.243       .  A
C188        O189   1.257       .  A
C188        C399   1.457       .  S
O189       Cr203   1.986       .  S
O190       Cr203   1.958       .  S
O190        C191   1.246       .  A
C191        C376   1.467       .  S
O192       Cr201   2.049       .  S
O192        C200   1.298       .  A
O193       Cr201   2.113       .  S
O193        C194   1.293       .  A
C194        O195   1.296       .  A
O195       Cr202   2.035       .  S
O196       Cr202   2.097       .  S
O196        C197   1.288       .  A
C197        O198   1.295       .  A
O198       Cr203   2.038       .  S
O199       Cr203   2.112       .  S
O199        C200   1.293       .  A
Cr201       O204   1.796       .  S
Cr202       O204   1.798       .  S
Cr203       O204   1.804       .  S
O205       Cr223   1.989       .  S
O205        C213   1.262       .  A
O206       Cr223   1.955       .  S
O206        C207   1.257       .  A
C207        O208   1.275       .  A
C207        C356   1.487       .  S
O208       Cr224   2.030       .  S
O209       Cr224   1.955       .  S
O209        C210   1.253       .  A
C210        O211   1.260       .  A
C210        C379   1.452       .  S
O211       Cr225   1.978       .  S
O212       Cr225   1.999       .  S
O212        C213   1.265       .  A
C213        C416   1.479       .  S
O214       Cr223   1.941       .  S
O214        C222   1.255       .  A
O215       Cr223   1.994       .  S
O215        C216   1.259       .  A
C216        O217   1.250       .  A
O217       Cr224   1.944       .  S
O218       Cr224   2.049       .  S
O218        C219   1.274       .  A
C219        O220   1.261       .  A
O220       Cr225   1.973       .  S
O221       Cr225   1.996       .  S
O221        C222   1.263       .  A
Cr223       O226   1.766       .  S
Cr224       O226   1.763       .  S
Cr225       O226   1.764       .  S
O227       Cr245   1.951       .  S
O227        C235   1.257       .  A
O228       Cr245   1.978       .  S
O228        C229   1.260       .  A
C229        O230   1.264       .  A
C229        C359   1.485       .  S
O230       Cr246   2.003       .  S
O231       Cr246   1.979       .  S
O231        C232   1.262       .  A
C232        O233   1.253       .  A
C232        C346   1.462       .  S
O233       Cr247   1.958       .  S
O234       Cr247   2.032       .  S
O234        C235   1.274       .  A
C235        C339   1.486       .  S
O236       Cr245   1.979       .  S
O236        C244   1.256       .  A
O237       Cr245   1.932       .  S
O237        C238   1.252       .  A
C238        O239   1.264       .  A
O239       Cr246   2.000       .  S
O240       Cr246   1.971       .  S
O240        C241   1.261       .  A
C241        O242   1.275       .  A
O242       Cr247   2.053       .  S
O243       Cr247   1.940       .  S
O243        C244   1.251       .  A
Cr245       O248   1.757       .  S
Cr246       O248   1.759       .  S
Cr247       O248   1.759       .  S
O249       Cr267   1.949       .  S
O249        C257   1.244       .  A
O250       Cr267   1.998       .  S
O250        C251   1.261       .  A
C251        O252   1.243       .  A
C251        C349   1.455       .  S
O252       Cr268   1.935       .  S
O253       Cr268   1.988       .  S
O253        C254   1.257       .  A
C254        O255   1.245       .  A
C254        C409   1.460       .  S
O255       Cr269   1.949       .  S
O256       Cr269   1.991       .  S
O256        C257   1.258       .  A
C257        C326   1.460       .  S
O258       Cr267   2.122       .  S
O258        C266   1.296       .  A
O259       Cr267   2.029       .  S
O259        C260   1.293       .  A
C260        O261   1.290       .  A
O261       Cr268   2.102       .  S
O262       Cr268   2.035       .  S
O262        C263   1.296       .  A
C263        O264   1.293       .  A
O264       Cr269   2.119       .  S
O265       Cr269   2.037       .  S
O265        C266   1.296       .  A
Cr267       O270   1.800       .  S
Cr268       O270   1.801       .  S
Cr269       O270   1.793       .  S
O271       Cr289   1.975       .  S
O271        C279   1.257       .  A
O272       Cr289   1.953       .  S
O272        C273   1.259       .  A
C273        O274   1.277       .  A
C273        C316   1.475       .  S
O274       Cr290   2.037       .  S
O275       Cr290   1.944       .  S
O275        C276   1.250       .  A
C276        O277   1.260       .  A
C276        C366   1.441       .  S
O277       Cr291   1.984       .  S
O278       Cr291   2.004       .  S
O278        C279   1.264       .  A
C279        C336   1.480       .  S
O280       Cr289   1.937       .  S
O280        C288   1.254       .  A
O281       Cr289   1.973       .  S
O281        C282   1.253       .  A
C282        O283   1.248       .  A
O283       Cr290   1.932       .  S
O284       Cr290   2.063       .  S
O284        C285   1.277       .  A
C285        O286   1.260       .  A
O286       Cr291   1.974       .  S
O287       Cr291   2.006       .  S
O287        C288   1.267       .  A
Cr289       O292   1.762       .  S
Cr290       O292   1.761       .  S
Cr291       O292   1.763       .  S
O293       Cr311   1.954       .  S
O293        C301   1.254       .  A
O294       Cr311   1.979       .  S
O294        C295   1.259       .  A
C295        O296   1.267       .  A
C295        C319   1.474       .  S
O296       Cr312   2.001       .  S
O297       Cr312   1.975       .  S
O297        C298   1.261       .  A
C298        O299   1.255       .  A
C298        C329   1.459       .  S
O299       Cr313   1.958       .  S
O300       Cr313   2.014       .  S
O300        C301   1.269       .  A
C301        C386   1.464       .  S
O302       Cr311   1.977       .  S
O302        C310   1.257       .  A
O303       Cr311   1.940       .  S
O303        C304   1.253       .  A
C304        O305   1.259       .  A
O305       Cr312   1.983       .  S
O306       Cr312   1.993       .  S
O306        C307   1.266       .  A
C307        O308   1.270       .  A
O308       Cr313   2.046       .  S
O309       Cr313   1.944       .  S
O309        C310   1.254       .  A
Cr311       O314   1.768       .  S
Cr312       O314   1.755       .  S
Cr313       O314   1.765       .  S
C315        C316   1.408       .  A
C315        C320   1.399       .  A
C315        H322   1.084       .  S
C316        C317   1.405       .  A
C317        C318   1.401       .  A
C317       Br324   1.921       .  S
C318        C319   1.410       .  A
C318        H323   1.084       .  S
C319        C320   1.404       .  A
C320       Br321   1.919       .  S
C325        C326   1.399       .  A
C325        C330   1.386       .  A
C325        H332   1.082       .  S
C326        C327   1.411       .  A
C327        C328   1.390       .  A
C327       Br334   1.924       .  S
C328        C329   1.404       .  A
C328        H333   1.084       .  S
C329        C330   1.409       .  A
C330       Br331   1.922       .  S
C335        C336   1.409       .  A
C335        C340   1.394       .  A
C335        H342   1.084       .  S
C336        C337   1.405       .  A
C337        C338   1.399       .  A
C337       Br344   1.917       .  S
C338        C339   1.414       .  A
C338        H343   1.083       .  S
C339        C340   1.411       .  A
C340       Br341   1.923       .  S
C345        C346   1.403       .  A
C345        C350   1.388       .  A
C345        H352   1.084       .  S
C346        C347   1.412       .  A
C347        C348   1.388       .  A
C347       Br354   1.922       .  S
C348        C349   1.398       .  A
C348        H353   1.084       .  S
C349        C350   1.412       .  A
C350       Br351   1.926       .  S
C355        C356   1.415       .  A
C355        C360   1.404       .  A
C355        H362   1.083       .  S
C356        C357   1.408       .  A
C357        C358   1.390       .  A
C357       Br364   1.923       .  S
C358        C359   1.408       .  A
C358        H363   1.083       .  S
C359        C360   1.410       .  A
C360       Br361   1.921       .  S
C365        C366   1.394       .  A
C365        C370   1.383       .  A
C365        H372   1.085       .  S
C366        C367   1.398       .  A
C367        C368   1.391       .  A
C367       Br374   1.914       .  S
C368        C369   1.409       .  A
C368        H373   1.083       .  S
C369        C370   1.416       .  A
C370       Br371   1.926       .  S
C375        C376   1.403       .  A
C375        C380   1.384       .  A
C375        H382   1.084       .  S
C376        C377   1.416       .  A
C377        C378   1.391       .  A
C377       Br384   1.923       .  S
C378        C379   1.400       .  A
C378        H383   1.084       .  S
C379        C380   1.406       .  A
C380       Br381   1.922       .  S
C385        C386   1.408       .  A
C385        C390   1.401       .  A
C385        H392   1.084       .  S
C386        C387   1.408       .  A
C387        C388   1.383       .  A
C387       Br394   1.924       .  S
C388        C389   1.403       .  A
C388        H393   1.084       .  S
C389        C390   1.407       .  A
C390       Br391   1.919       .  S
C395        C396   1.394       .  A
C395        C400   1.384       .  A
C395        H402   1.085       .  S
C396        C397   1.406       .  A
C397        C398   1.384       .  A
C397       Br404   1.925       .  S
C398        C399   1.402       .  A
C398        H403   1.083       .  S
C399        C400   1.416       .  A
C400       Br401   1.925       .  S
C405        C406   1.397       .  A
C405        C410   1.387       .  A
C405        H412   1.084       .  S
C406        C407   1.410       .  A
C407        C408   1.389       .  A
C407       Br414   1.923       .  S
C408        C409   1.402       .  A
C408        H413   1.084       .  S
C409        C410   1.414       .  A
C410       Br411   1.923       .  S
C415        C416   1.410       .  A
C415        C420   1.400       .  A
C415        H422   1.084       .  S
C416        C417   1.406       .  A
C417        C418   1.398       .  A
C417       Br424   1.918       .  S
C418        C419   1.409       .  A
C418        H423   1.084       .  S
C419        C420   1.406       .  A
C420       Br421   1.920       .  S
C425        C426   1.409       .  A
C425        C430   1.397       .  A
C425        H432   1.084       .  S
C426        C427   1.403       .  A
C427        C428   1.398       .  A
C427       Br434   1.917       .  S
C428        C429   1.406       .  A
C428        H433   1.084       .  S
C429        C430   1.402       .  A
C430       Br431   1.920       .  S
C435       C2175   1.524       .  S
C435        C438   1.533       .  S
C435        C741   1.551       .  S
C436       C2176   1.522   1_455  S
C436        C441   1.651   1_455  S
C436        C634   1.627       .  S
C437        C445   1.362   1_554  A
C437        C440   1.406   1_554  A
C438        C449   1.386       .  A
C438       C1743   1.426       .  A
C439       C2171   1.518       .  S
C439        C453   1.374   1_655  A
C439        C442   1.415   1_655  A
C440       C2172   1.522       .  S
C440        C443   1.374       .  A
C441       C1740   1.427   1_556  A
C441        C447   1.436   1_655  A
C442        C450   1.366       .  A
C443        N444   1.343       .  A
C443        H456   1.082       .  S
N444        C445   1.332       .  A
N444        C606   1.396       .  S
C445        H446   1.081       .  S
C447       N1750   1.400   1_456  A
C447        H457   1.085       .  S
N448       C1749   1.401       .  A
N448        C449   1.354       .  A
N448        N471   1.455       .  S
C449        H455   1.077       .  S
C450        N451   1.344       .  A
C450        H452   1.080       .  S
N451        C453   1.343       .  A
N451        C722   1.412       .  S
C453        H454   1.081   1_455  S
C458       C2196   1.520       .  S
C458        C461   1.539       .  S
C458        C653   1.551       .  S
C459        C463   1.535       .  S
C459        C465   1.523       .  S
C459        C464   1.656       .  S
C459        C700   1.631       .  S
C460       C2194   1.524       .  S
C460        C468   1.382       .  A
C461        C472   1.389       .  A
C461       C1766   1.426   1_456  A
C462        C476   1.368       .  A
C462       C2201   1.401       .  A
C464       C1763   1.428       .  A
C464        C470   1.438       .  A
C465       C2198   1.399       .  A
C465       C2209   1.379       .  A
C466        N467   1.341       .  A
C466        H479   1.080       .  S
N467        C468   1.345       .  A
N467        C584   1.415       .  S
C468        H469   1.082       .  S
C470        N471   1.401       .  A
C470        H480   1.085       .  S
N471       C1774   1.355       .  A
C472       N1773   1.356   1_456  A
C472        H478   1.078       .  S
C473       C2201   1.376       .  A
C473        N474   1.343       .  A
C473        H475   1.082       .  S
N474        C476   1.339       .  A
N474        C678   1.404       .  S
C476        H477   1.081       .  S
C481       C1351   1.533   1_545  S
C481        C484   1.662   1_556  S
C481        C631   1.640       .  S
C482       C1356   1.528       .  S
C482        C487   1.532       .  S
C482        C675   1.544       .  S
C483       C1349   1.537       .  S
C483        C491   1.369       .  A
C483        C486   1.415   1_556  A
C484        C495   1.443   1_554  A
C484        C921   1.429   1_545  A
C485        C499   1.379       .  A
C485        C488   1.398   1_545  A
C486        C489   1.379       .  A
C487        C918   1.427       .  A
C487        C493   1.388       .  A
C488       C1350   1.526       .  S
C488        C496   1.371   1_565  A
C489        N490   1.345   1_554  A
C489        H502   1.081       .  S
N490        C491   1.344       .  A
N490        C656   1.418       .  S
C491        H492   1.081       .  S
C493        N494   1.353       .  A
C493        H503   1.077       .  S
N494        C929   1.403       .  A
N494       N1385   1.457       .  S
C495        N928   1.403   1_546  A
C495        H501   1.086       .  S
C496        N497   1.339       .  A
C496        H498   1.080       .  S
N497        C499   1.347       .  A
N497        C716   1.410       .  S
C499        H500   1.082       .  S
C504        C506   1.526       .  S
C504       C1376   1.535       .  S
C504        C507   1.661       .  S
C504        C694   1.637       .  S
C505       C1377   1.530   1_545  S
C505        C510   1.539       .  S
C505        C609   1.561       .  S
C507        C518   1.442       .  A
C507        C944   1.428       .  A
C508       C1372   1.530   1_545  S
C508        C522   1.364       .  A
C508        C511   1.416       .  A
C509       C1373   1.526       .  S
C509        C512   1.370       .  A
C510        C941   1.430   1_546  A
C510        C516   1.391       .  A
C511        C519   1.377       .  A
C512        N513   1.338       .  A
C512        H525   1.081       .  S
N513        C514   1.345       .  A
N513        C590   1.405       .  S
C514        H515   1.082       .  S
C516        H526   1.078       .  S
N517       C1386   1.399       .  A
N517       N1362   1.454       .  S
C518       N1385   1.403       .  A
C518        H524   1.086       .  S
C519        N520   1.343       .  A
C519        H521   1.082       .  S
N520        C522   1.341       .  A
N520        C738   1.411       .  S
C522        H523   1.080       .  S
C527       C1397   1.520       .  S
C527        C531   1.533       .  S
C527        C530   1.658       .  S
C527        C697   1.635       .  S
C528       C2268   1.530       .  S
C528       C1402   1.523       .  S
C528        C533   1.538       .  S
C528        C719   1.555       .  S
C529       C1395   1.520   1_545  S
C529        C537   1.373       .  A
C529        C532   1.405       .  A
C530        C541   1.439       .  A
C530       C3137   1.429       .  A
C531       C2281   1.367       .  A
C531       C2270   1.414       .  A
C532       C2264   1.527       .  S
C532        C535   1.368       .  A
C533       C3134   1.427   1_445  A
C533        C539   1.390       .  A
C534       C1396   1.523       .  S
C534       C2267   1.417       .  A
C534        C542   1.379       .  A
C535        N536   1.336       .  A
C535        H548   1.080       .  S
N536        C537   1.340       .  A
N536        C744   1.399       .  S
C537        H538   1.082       .  S
C539       N2276   1.356   1_455  A
C539        H549   1.075       .  S
N540       C2275   1.356       .  A
N540       C1409   1.401   1_545  A
N540       N1431   1.457   1_545  S
C541       N1408   1.401       .  A
C541        H547   1.086       .  S
C542        N543   1.345       .  A
C542        H544   1.082       .  S
N543        C545   1.342       .  A
N543        C672   1.416       .  S
C545       C2267   1.367       .  A
C545        H546   1.080       .  S
C550       C2288   1.528   1_455  S
C550       C1422   1.516   1_545  S
C550        C553   1.657       .  S
C550        C628   1.631       .  S
C551       C1423   1.526       .  S
C551       C2293   1.524       .  S
C551        C556   1.535       .  S
C551        C587   1.552       .  S
C552       C2286   1.532       .  S
C552        C560   1.369       .  A
C552        C555   1.411   1_545  A
C553        C564   1.439       .  A
C553       C3160   1.428   1_445  A
C554       C1418   1.525       .  S
C554        C568   1.377       .  A
C554        C557   1.402   1_455  A
C555       C1419   1.523       .  S
C555        C558   1.378   1_565  A
C556       C3157   1.427       .  A
C556        C562   1.388       .  A
C557       C2287   1.522       .  S
C557        C565   1.363   1_655  A
C558        N559   1.347       .  A
C558        H571   1.081   1_545  S
N559        C560   1.342       .  A
N559        C612   1.416       .  S
C560        H561   1.080       .  S
C562        N563   1.354       .  A
C562        H572   1.077       .  S
N563       C3168   1.402       .  A
N563       N1408   1.456       .  S
C564       N3167   1.401   1_455  A
C564        H570   1.087       .  S
C565        N566   1.335       .  A
C565        H567   1.080       .  S
N566        C568   1.346       .  A
N566        C650   1.401       .  S
C568        H569   1.082       .  S
O573       Cr591   1.961       .  S
O573        C581   1.259       .  A
O574       Cr591   1.971       .  S
O574        C575   1.257       .  A
C575        O576   1.267       .  A
C575        C863   1.487       .  S
O576       Cr592   2.017       .  S
O577       Cr592   1.983       .  S
O577        C578   1.262       .  A
C578        O579   1.248       .  A
C578        C840   1.432       .  S
O579       Cr593   1.937       .  S
O580       Cr593   2.007       .  S
O580        C581   1.268       .  A
C581        C853   1.479       .  S
O582       Cr591   1.982       .  S
O582        C590   1.257       .  A
O583       Cr591   1.930       .  S
O583        C584   1.254       .  A
C584        O585   1.265       .  A
O585       Cr592   2.000       .  S
O586       Cr592   1.993       .  S
O586        C587   1.265       .  A
C587        O588   1.269       .  A
O588       Cr593   2.040       .  S
O589       Cr593   1.938       .  S
O589        C590   1.251       .  A
Cr591       O594   1.758       .  S
Cr592       O594   1.761       .  S
Cr593       O594   1.757       .  S
O595       Cr613   1.958       .  S
O595        C603   1.253       .  A
O596       Cr613   1.956       .  S
O596        C597   1.260       .  A
C597        O598   1.279       .  A
C597        C860   1.488       .  S
O598       Cr614   2.040       .  S
O599       Cr614   1.943       .  S
O599        C600   1.248       .  A
C600        O601   1.263       .  A
C600        C830   1.455       .  S
O601       Cr615   1.981       .  S
O602       Cr615   2.019       .  S
O602        C603   1.267       .  A
C603        C823   1.487       .  S
O604       Cr613   1.946       .  S
O604        C612   1.258       .  A
O605       Cr613   1.967       .  S
O605        C606   1.250       .  A
C606        O607   1.247       .  A
O607       Cr614   1.928       .  S
O608       Cr614   2.061       .  S
O608        C609   1.276       .  A
C609        O610   1.260       .  A
O610       Cr615   1.976       .  S
O611       Cr615   2.001       .  S
O611        C612   1.267       .  A
Cr613       O616   1.761       .  S
Cr614       O616   1.761       .  S
Cr615       O616   1.755       .  S
O617       Cr635   1.983       .  S
O617        C625   1.256       .  A
O618       Cr635   1.971       .  S
O618        C619   1.252       .  A
C619        O620   1.250       .  A
C619        C803   1.471       .  S
O620       Cr636   1.974       .  S
O621       Cr636   1.943       .  S
O621        C622   1.245       .  A
C622        O623   1.256       .  A
C622        C833   1.456       .  S
O623       Cr637   1.980       .  S
O624       Cr637   1.960       .  S
O624        C625   1.247       .  A
C625        C810   1.469       .  S
O626       Cr635   2.041       .  S
O626        C634   1.297       .  A
O627       Cr635   2.108       .  S
O627        C628   1.291       .  A
C628        O629   1.297       .  A
O629       Cr636   2.038       .  S
O630       Cr636   2.102       .  S
O630        C631   1.289       .  A
C631        O632   1.298       .  A
O632       Cr637   2.051       .  S
O633       Cr637   2.099       .  S
O633        C634   1.290       .  A
Cr635       O638   1.801       .  S
Cr636       O638   1.796       .  S
Cr637       O638   1.803       .  S
O639       Cr657   1.966       .  S
O639        C647   1.253       .  A
O640       Cr657   1.957       .  S
O640        C641   1.261       .  A
C641        O642   1.278       .  A
C641        C790   1.483       .  S
O642       Cr658   2.035       .  S
O643       Cr658   1.952       .  S
O643        C644   1.252       .  A
C644        O645   1.264       .  A
C644        C813   1.460       .  S
O645       Cr659   1.984       .  S
O646       Cr659   2.008       .  S
O646        C647   1.263       .  A
C647        C850   1.483       .  S
O648       Cr657   1.939       .  S
O648        C656   1.256       .  A
O649       Cr657   1.971       .  S
O649        C650   1.251       .  A
C650        O651   1.249       .  A
O651       Cr658   1.938       .  S
O652       Cr658   2.050       .  S
O652        C653   1.274       .  A
C653        O654   1.259       .  A
O654       Cr659   1.970       .  S
O655       Cr659   2.010       .  S
O655        C656   1.270       .  A
Cr657       O660   1.765       .  S
Cr658       O660   1.761       .  S
Cr659       O660   1.756       .  S
O661       Cr679   1.954       .  S
O661        C669   1.257       .  A
O662       Cr679   1.978       .  S
O662        C663   1.259       .  A
C663        O664   1.264       .  A
C663        C793   1.479       .  S
O664       Cr680   2.002       .  S
O665       Cr680   1.982       .  S
O665        C666   1.261       .  A
C666        O667   1.252       .  A
C666        C780   1.439       .  S
O667       Cr681   1.943       .  S
O668       Cr681   2.027       .  S
O668        C669   1.272       .  A
C669        C773   1.482       .  S
O670       Cr679   1.987       .  S
O670        C678   1.258       .  A
O671       Cr679   1.934       .  S
O671        C672   1.253       .  A
C672        O673   1.265       .  A
O673       Cr680   2.000       .  S
O674       Cr680   1.972       .  S
O674        C675   1.261       .  A
C675        O676   1.272       .  A
O676       Cr681   2.046       .  S
O677       Cr681   1.931       .  S
O677        C678   1.250       .  A
Cr679       O682   1.760       .  S
Cr680       O682   1.760       .  S
Cr681       O682   1.759       .  S
O683       Cr701   1.951       .  S
O683        C691   1.245       .  A
O684       Cr701   1.973       .  S
O684        C685   1.255       .  A
C685        O686   1.244       .  A
C685        C783   1.462       .  S
O686       Cr702   1.952       .  S
O687       Cr702   1.968       .  S
O687        C688   1.254       .  A
C688        O689   1.247       .  A
C688        C843   1.457       .  S
O689       Cr703   1.953       .  S
O690       Cr703   1.982       .  S
O690        C691   1.256       .  A
C691        C760   1.464       .  S
O692       Cr701   2.104       .  S
O692        C700   1.290       .  A
O693       Cr701   2.043       .  S
O693        C694   1.297       .  A
C694        O695   1.291       .  A
O695       Cr702   2.106       .  S
O696       Cr702   2.042       .  S
O696        C697   1.298       .  A
C697        O698   1.290       .  A
O698       Cr703   2.103       .  S
O699       Cr703   2.040       .  S
O699        C700   1.298       .  A
Cr701       O704   1.798       .  S
Cr702       O704   1.800       .  S
Cr703       O704   1.801       .  S
O705       Cr723   1.974       .  S
O705        C713   1.256       .  A
O706       Cr723   1.957       .  S
O706        C707   1.260       .  A
C707        O708   1.274       .  A
C707        C750   1.485       .  S
O708       Cr724   2.023       .  S
O709       Cr724   1.957       .  S
O709        C710   1.254       .  A
C710        O711   1.262       .  A
C710        C800   1.453       .  S
O711       Cr725   1.990       .  S
O712       Cr725   2.001       .  S
O712        C713   1.263       .  A
C713        C770   1.477       .  S
O714       Cr723   1.931       .  S
O714        C722   1.253       .  A
O715       Cr723   1.979       .  S
O715        C716   1.254       .  A
C716        O717   1.251       .  A
O717       Cr724   1.950       .  S
O718       Cr724   2.049       .  S
O718        C719   1.272       .  A
C719        O720   1.260       .  A
O720       Cr725   1.973       .  S
O721       Cr725   2.003       .  S
O721        C722   1.267       .  A
Cr723       O726   1.767       .  S
Cr724       O726   1.761       .  S
Cr725       O726   1.761       .  S
O727       Cr745   1.953       .  S
O727        C735   1.257       .  A
O728       Cr745   1.975       .  S
O728        C729   1.260       .  A
C729        O730   1.264       .  A
C729        C753   1.483       .  S
O730       Cr746   2.004       .  S
O731       Cr746   1.981       .  S
O731        C732   1.262       .  A
C732        O733   1.250       .  A
C732        C763   1.442       .  S
O733       Cr747   1.943       .  S
O734       Cr747   2.024       .  S
O734        C735   1.272       .  A
C735        C820   1.482       .  S
O736       Cr745   1.978       .  S
O736        C744   1.256       .  A
O737       Cr745   1.926       .  S
O737        C738   1.251       .  A
C738        O739   1.264       .  A
O739       Cr746   1.998       .  S
O740       Cr746   1.978       .  S
O740        C741   1.262       .  A
C741        O742   1.274       .  A
O742       Cr747   2.053       .  S
O743       Cr747   1.928       .  S
O743        C744   1.249       .  A
Cr745       O748   1.758       .  S
Cr746       O748   1.760       .  S
Cr747       O748   1.757       .  S
C749        C750   1.415       .  A
C749        C754   1.404       .  A
C749        H756   1.083       .  S
C750        C751   1.412       .  A
C751        C752   1.388       .  A
C751       Br758   1.926       .  S
C752        C753   1.407       .  A
C752        H757   1.084       .  S
C753        C754   1.409       .  A
C754       Br755   1.920       .  S
C759        C760   1.404       .  A
C759        C764   1.384       .  A
C759        H766   1.083       .  S
C760        C761   1.417       .  A
C761        C762   1.388       .  A
C761       Br768   1.925       .  S
C762        C763   1.395       .  A
C762        H767   1.084       .  S
C763        C764   1.404       .  A
C764       Br765   1.925       .  S
C769        C770   1.409       .  A
C769        C774   1.393       .  A
C769        H776   1.084       .  S
C770        C771   1.405       .  A
C771        C772   1.398       .  A
C771       Br778   1.919       .  S
C772        C773   1.413       .  A
C772        H777   1.083       .  S
C773        C774   1.411       .  A
C774       Br775   1.924       .  S
C779        C780   1.395       .  A
C779        C784   1.391       .  A
C779        H786   1.084       .  S
C780        C781   1.402       .  A
C781        C782   1.379       .  A
C781       Br788   1.923       .  S
C782        C783   1.403       .  A
C782        H787   1.083       .  S
C783        C784   1.418       .  A
C784       Br785   1.924       .  S
C789        C790   1.413       .  A
C789        C794   1.401       .  A
C789        H796   1.083       .  S
C790        C791   1.409       .  A
C791        C792   1.394       .  A
C791       Br798   1.922       .  S
C792        C793   1.408       .  A
C792        H797   1.084       .  S
C793        C794   1.407       .  A
C794       Br795   1.919       .  S
C799        C800   1.395       .  A
C799        C804   1.386       .  A
C799        H806   1.085       .  S
C800        C801   1.402       .  A
C801        C802   1.394       .  A
C801       Br808   1.916       .  S
C802        C803   1.409       .  A
C802        H807   1.083       .  S
C803        C804   1.417       .  A
C804       Br805   1.926       .  S
C809        C810   1.405       .  A
C809        C814   1.390       .  A
C809        H816   1.084       .  S
C810        C811   1.414       .  A
C811        C812   1.389       .  A
C811       Br818   1.922       .  S
C812        C813   1.399       .  A
C812        H817   1.084       .  S
C813        C814   1.411       .  A
C814       Br815   1.924       .  S
C819        C820   1.413       .  A
C819        C824   1.403       .  A
C819        H826   1.083       .  S
C820        C821   1.410       .  A
C821        C822   1.388       .  A
C821       Br828   1.928       .  S
C822        C823   1.412       .  A
C822        H827   1.083       .  S
C823        C824   1.408       .  A
C824       Br825   1.918       .  S
C829        C830   1.398       .  A
C829        C834   1.384       .  A
C829        H836   1.084       .  S
C830        C831   1.413       .  A
C831        C832   1.387       .  A
C831       Br838   1.924       .  S
C832        C833   1.401       .  A
C832        H837   1.083       .  S
C833        C834   1.411       .  A
C834       Br835   1.921       .  S
C839        C840   1.391       .  A
C839        C844   1.387       .  A
C839        H846   1.084       .  S
C840        C841   1.402       .  A
C841        C842   1.380       .  A
C841       Br848   1.923       .  S
C842        C843   1.403       .  A
C842        H847   1.083       .  S
C843        C844   1.415       .  A
C844       Br845   1.915       .  S
C849        C850   1.410       .  A
C849        C854   1.388       .  A
C849        H856   1.083       .  S
C850        C851   1.408       .  A
C851        C852   1.400       .  A
C851       Br858   1.919       .  S
C852        C853   1.410       .  A
C852        H857   1.083       .  S
C853        C854   1.413       .  A
C854       Br855   1.930       .  S
C859        C860   1.415       .  A
C859        C864   1.404       .  A
C859        H866   1.083       .  S
C860        C861   1.408       .  A
C861        C862   1.393       .  A
C861       Br868   1.923       .  S
C862        C863   1.411       .  A
C862        H867   1.084       .  S
C863        C864   1.407       .  A
C864       Br865   1.919       .  S
C869       C1305   1.533       .  S
C869       C2609   1.521       .  S
C869        C872   1.538       .  S
C869       C1175   1.550       .  S
C870       C2610   1.523   1_455  S
C870       C1310   1.531       .  S
C870        C875   1.655   1_455  S
C870       C1068   1.633       .  S
C871       C1303   1.528       .  S
C871        C879   1.367       .  A
C871        C874   1.403       .  A
C872        C883   1.391       .  A
C872       C3045   1.426   1_554  A
C873       C2605   1.522       .  S
C873        C887   1.377       .  A
C873        C876   1.418   1_655  A
C874       C2606   1.525       .  S
C874        C877   1.376       .  A
C875       C3042   1.429       .  A
C875        C881   1.437   1_655  A
C876       C1304   1.538   1_554  S
C876        C884   1.368       .  A
C877        N878   1.344       .  A
C877        H890   1.082       .  S
N878        C879   1.336       .  A
N878       C1040   1.403       .  S
C879        H880   1.080       .  S
C881       N3052   1.401   1_455  A
C881        H891   1.085       .  S
N882       C3051   1.401   1_554  A
N882        C883   1.357       .  A
N882        N905   1.457       .  S
C883        H889   1.078       .  S
C884        N885   1.342       .  A
C884        H886   1.080       .  S
N885        C887   1.345   1_455  A
N885       C1156   1.413       .  S
C887        H888   1.082       .  S
C892       C2630   1.521       .  S
C892       C1330   1.526       .  S
C892        C895   1.535       .  S
C892       C1087   1.548       .  S
C893        C897   1.538   1_554  S
C893        C899   1.527       .  S
C893        C898   1.655       .  S
C893       C1134   1.635       .  S
C894       C2628   1.521       .  S
C894        C902   1.378       .  A
C894       C1331   1.412       .  A
C895        C906   1.386       .  A
C895       C3068   1.426   1_455  A
C896       C1326   1.535   1_554  S
C896        C910   1.374       .  A
C896       C2635   1.401       .  A
C897       C1328   1.412       .  A
C897       C1334   1.371       .  A
C898       C3065   1.428   1_554  A
C898        C904   1.440       .  A
C899       C2632   1.402       .  A
C899       C2643   1.378       .  A
C900       C1331   1.366       .  A
C900        N901   1.340       .  A
C900        H913   1.079       .  S
N901        C902   1.344       .  A
N901       C1018   1.413       .  S
C902        H903   1.081       .  S
C904        N905   1.401       .  A
C904        H914   1.085       .  S
N905       C3076   1.356   1_554  A
C906       N3075   1.354   1_455  A
C906        H912   1.078       .  S
C907       C2635   1.377       .  A
C907        N908   1.344       .  A
C907        H909   1.082       .  S
N908        C910   1.343       .  A
N908       C1112   1.411       .  S
C910        H911   1.081       .  S
C915       C1353   1.521       .  S
C915        C918   1.662       .  S
C915       C1065   1.633       .  S
C916       C1354   1.524       .  S
C916        C921   1.537       .  S
C916       C1109   1.556       .  S
C917        C925   1.369       .  A
C917        C920   1.415       .  A
C918        C929   1.442       .  A
C919       C1349   1.525   1_554  S
C919        C933   1.378       .  A
C919        C922   1.403       .  A
C920       C1350   1.521       .  S
C920        C923   1.379       .  A
C921        C927   1.389       .  A
C922        C930   1.369       .  A
C923        N924   1.343       .  A
C923        H936   1.081       .  S
N924        C925   1.342       .  A
N924       C1090   1.416       .  S
C925        H926   1.080       .  S
C927        N928   1.355       .  A
C927        H937   1.077       .  S
C929        H935   1.086       .  S
C930        N931   1.337       .  A
C930        H932   1.080       .  S
N931        C933   1.345       .  A
N931       C1150   1.406       .  S
C933        H934   1.082       .  S
C938        C940   1.524   1_554  S
C938        C941   1.660       .  S
C938       C1128   1.645       .  S
C939       C1379   1.524       .  S
C939        C944   1.534       .  S
C939       C1043   1.548       .  S
C940       C1382   1.374       .  A
C940       C1377   1.403       .  A
C941        C952   1.441       .  A
C942        C956   1.364       .  A
C942        C945   1.413   1_554  A
C943       C1374   1.408       .  A
C943        C946   1.372       .  A
C944        C950   1.388       .  A
C945       C1373   1.521       .  S
C945        C953   1.383   1_556  A
C946        N947   1.337       .  A
C946        H959   1.081       .  S
N947        C948   1.340       .  A
N947       C1024   1.403       .  S
C948       C1374   1.374       .  A
C948        H949   1.082       .  S
C950       N1385   1.353       .  A
C950        H960   1.077       .  S
N951       C1384   1.354   1_554  A
C952        H958   1.085       .  S
C953        N954   1.345       .  A
C953        H955   1.082   1_554  S
N954        C956   1.340       .  A
N954       C1172   1.416       .  S
C956        H957   1.079       .  S
C961        C965   1.534       .  S
C961        C964   1.656       .  S
C961       C1131   1.642       .  S
C962       C2702   1.529   1_455  S
C962        C967   1.537       .  S
C962       C1153   1.555       .  S
C963        C971   1.374       .  A
C963        C966   1.405       .  A
C964        C975   1.437       .  A
C964       C1835   1.429   1_565  A
C965       C2715   1.365       .  A
C965       C2704   1.418   1_565  A
C966       C2698   1.531       .  S
C966        C969   1.371       .  A
C967       C1832   1.428   1_455  A
C967        C973   1.390       .  A
C968       C2701   1.421   1_545  A
C968        C976   1.373   1_545  A
C969        N970   1.340       .  A
C969        H982   1.081       .  S
N970        C971   1.340       .  A
N970       C1178   1.405       .  S
C971        H972   1.082       .  S
C973       N2710   1.355   1_455  A
C973        H983   1.076       .  S
N974       C2709   1.351       .  A
C975        H981   1.086       .  S
C976        N977   1.344       .  A
C976        H978   1.082   1_565  S
N977        C979   1.337       .  A
N977       C1106   1.404       .  S
C979       C2701   1.359       .  A
C979        H980   1.080       .  S
C984       C2722   1.534   1_455  S
C984        C987   1.660       .  S
C984       C1062   1.626       .  S
C985       C2727   1.531       .  S
C985        C990   1.535       .  S
C985       C1021   1.561       .  S
C986       C2720   1.534       .  S
C986        C994   1.371       .  A
C986        C989   1.412       .  A
C987        C998   1.441       .  A
C987       C1858   1.427   1_455  A
C988       C1002   1.375       .  A
C988        C991   1.401   1_455  A
C989        C992   1.378       .  A
C990       C1855   1.428   1_565  A
C990        C996   1.386       .  A
C991       C2721   1.520       .  S
C991        C999   1.364   1_655  A
C992        N993   1.344       .  A
C992       H1005   1.082       .  S
N993        C994   1.343       .  A
N993       C1046   1.417       .  S
C994        H995   1.080       .  S
C996        N997   1.354       .  A
C996       H1006   1.076       .  S
N997       C1866   1.401   1_565  A
C998       N1865   1.402   1_455  A
C998       H1004   1.086       .  S
C999       N1000   1.337       .  A
C999       H1001   1.081       .  S
N1000      C1002   1.345       .  A
N1000      C1084   1.402       .  S
C1002      H1003   1.082       .  S
O1007     Cr1025   1.948       .  S
O1007      C1015   1.258       .  A
O1008     Cr1025   1.980       .  S
O1008      C1009   1.259       .  A
C1009      O1010   1.264       .  A
C1009      C1297   1.477       .  S
O1010     Cr1026   1.999       .  S
O1011     Cr1026   1.985       .  S
O1011      C1012   1.262       .  A
C1012      O1013   1.249       .  A
C1012      C1274   1.463       .  S
O1013     Cr1027   1.951       .  S
O1014     Cr1027   2.046       .  S
O1014      C1015   1.280       .  A
C1015      C1287   1.474       .  S
O1016     Cr1025   1.976       .  S
O1016      C1024   1.253       .  A
O1017     Cr1025   1.938       .  S
O1017      C1018   1.255       .  A
C1018      O1019   1.265       .  A
O1019     Cr1026   1.996       .  S
O1020     Cr1026   1.960       .  S
O1020      C1021   1.255       .  A
C1021      O1022   1.280       .  A
O1022     Cr1027   2.073       .  S
O1023     Cr1027   1.933       .  S
O1023      C1024   1.248       .  A
Cr1025     O1028   1.762       .  S
Cr1026     O1028   1.761       .  S
Cr1027     O1028   1.760       .  S
O1029     Cr1047   1.978       .  S
O1029      C1037   1.261       .  A
O1030     Cr1047   1.965       .  S
O1030      C1031   1.256       .  A
C1031      O1032   1.270       .  A
C1031      C1294   1.477       .  S
O1032     Cr1048   2.024       .  S
O1033     Cr1048   1.955       .  S
O1033      C1034   1.254       .  A
C1034      O1035   1.264       .  A
C1034      C1264   1.461       .  S
O1035     Cr1049   1.982       .  S
O1036     Cr1049   1.988       .  S
O1036      C1037   1.264       .  A
C1037      C1257   1.467       .  S
O1038     Cr1047   1.940       .  S
O1038      C1046   1.251       .  A
O1039     Cr1047   1.977       .  S
O1039      C1040   1.259       .  A
C1040      O1041   1.251       .  A
O1041     Cr1048   1.932       .  S
O1042     Cr1048   2.048       .  S
O1042      C1043   1.271       .  A
C1043      O1044   1.261       .  A
O1044     Cr1049   1.975       .  S
O1045     Cr1049   1.993       .  S
O1045      C1046   1.261       .  A
Cr1047     O1050   1.763       .  S
Cr1048     O1050   1.765       .  S
Cr1049     O1050   1.758       .  S
O1051     Cr1069   1.978       .  S
O1051      C1059   1.253       .  A
O1052     Cr1069   1.952       .  S
O1052      C1053   1.251       .  A
C1053      O1054   1.250       .  A
C1053      C1237   1.456       .  S
O1054     Cr1070   1.971       .  S
O1055     Cr1070   1.948       .  S
O1055      C1056   1.246       .  A
C1056      O1057   1.256       .  A
C1056      C1267   1.453       .  S
O1057     Cr1071   1.986       .  S
O1058     Cr1071   1.937       .  S
O1058      C1059   1.241       .  A
C1059      C1244   1.450       .  S
O1060     Cr1069   2.039       .  S
O1060      C1068   1.297       .  A
O1061     Cr1069   2.091       .  S
O1061      C1062   1.286       .  A
C1062      O1063   1.299       .  A
O1063     Cr1070   2.037       .  S
O1064     Cr1070   2.099       .  S
O1064      C1065   1.290       .  A
C1065      O1066   1.296       .  A
O1066     Cr1071   2.037       .  S
O1067     Cr1071   2.113       .  S
O1067      C1068   1.294       .  A
Cr1069     O1072   1.802       .  S
Cr1070     O1072   1.797       .  S
Cr1071     O1072   1.796       .  S
O1073     Cr1091   1.978       .  S
O1073      C1081   1.259       .  A
O1074     Cr1091   1.955       .  S
O1074      C1075   1.257       .  A
C1075      O1076   1.274       .  A
C1075      C1224   1.483       .  S
O1076     Cr1092   2.030       .  S
O1077     Cr1092   1.940       .  S
O1077      C1078   1.249       .  A
C1078      O1079   1.261       .  A
C1078      C1247   1.441       .  S
O1079     Cr1093   1.979       .  S
O1080     Cr1093   1.994       .  S
O1080      C1081   1.264       .  A
C1081      C1284   1.465       .  S
O1082     Cr1091   1.937       .  S
O1082      C1090   1.253       .  A
O1083     Cr1091   1.979       .  S
O1083      C1084   1.256       .  A
C1084      O1085   1.250       .  A
O1085     Cr1092   1.931       .  S
O1086     Cr1092   2.055       .  S
O1086      C1087   1.273       .  A
C1087      O1088   1.259       .  A
O1088     Cr1093   1.966       .  S
O1089     Cr1093   1.996       .  S
O1089      C1090   1.264       .  A
Cr1091     O1094   1.759       .  S
Cr1092     O1094   1.759       .  S
Cr1093     O1094   1.759       .  S
O1095     Cr1113   1.944       .  S
O1095      C1103   1.254       .  A
O1096     Cr1113   1.982       .  S
O1096      C1097   1.260       .  A
C1097      O1098   1.266       .  A
C1097      C1227   1.483       .  S
O1098     Cr1114   2.007       .  S
O1099     Cr1114   1.961       .  S
O1099      C1100   1.259       .  A
C1100      O1101   1.251       .  A
C1100      C1214   1.461       .  S
O1101     Cr1115   1.954       .  S
O1102     Cr1115   2.030       .  S
O1102      C1103   1.274       .  A
C1103      C1207   1.478       .  S
O1104     Cr1113   1.992       .  S
O1104      C1112   1.259       .  A
O1105     Cr1113   1.925       .  S
O1105      C1106   1.253       .  A
C1106      O1107   1.260       .  A
O1107     Cr1114   1.980       .  S
O1108     Cr1114   1.987       .  S
O1108      C1109   1.266       .  A
C1109      O1110   1.274       .  A
O1110     Cr1115   2.053       .  S
O1111     Cr1115   1.940       .  S
O1111      C1112   1.250       .  A
Cr1113     O1116   1.760       .  S
Cr1114     O1116   1.755       .  S
Cr1115     O1116   1.761       .  S
O1117     Cr1135   1.947       .  S
O1117      C1125   1.245       .  A
O1118     Cr1135   1.978       .  S
O1118      C1119   1.253       .  A
C1119      O1120   1.245       .  A
C1119      C1217   1.436       .  S
O1120     Cr1136   1.940       .  S
O1121     Cr1136   1.996       .  S
O1121      C1122   1.259       .  A
C1122      O1123   1.245       .  A
C1122      C1277   1.470       .  S
O1123     Cr1137   1.954       .  S
O1124     Cr1137   1.990       .  S
O1124      C1125   1.258       .  A
C1125      C1194   1.464       .  S
O1126     Cr1135   2.102       .  S
O1126      C1134   1.291       .  A
O1127     Cr1135   2.048       .  S
O1127      C1128   1.299       .  A
C1128      O1129   1.293       .  A
O1129     Cr1136   2.114       .  S
O1130     Cr1136   2.044       .  S
O1130      C1131   1.296       .  A
C1131      O1132   1.295       .  A
O1132     Cr1137   2.119       .  S
O1133     Cr1137   2.048       .  S
O1133      C1134   1.298       .  A
Cr1135     O1138   1.805       .  S
Cr1136     O1138   1.802       .  S
Cr1137     O1138   1.803       .  S
O1139     Cr1157   1.974       .  S
O1139      C1147   1.258       .  A
O1140     Cr1157   1.948       .  S
O1140      C1141   1.256       .  A
C1141      O1142   1.276       .  A
C1141      C1184   1.471       .  S
O1142     Cr1158   2.041       .  S
O1143     Cr1158   1.951       .  S
O1143      C1144   1.253       .  A
C1144      O1145   1.257       .  A
C1144      C1234   1.443       .  S
O1145     Cr1159   1.967       .  S
O1146     Cr1159   2.004       .  S
O1146      C1147   1.264       .  A
C1147      C1204   1.477       .  S
O1148     Cr1157   1.936       .  S
O1148      C1156   1.254       .  A
O1149     Cr1157   1.980       .  S
O1149      C1150   1.256       .  A
C1150      O1151   1.251       .  A
O1151     Cr1158   1.938       .  S
O1152     Cr1158   2.063       .  S
O1152      C1153   1.278       .  A
C1153      O1154   1.262       .  A
O1154     Cr1159   1.974       .  S
O1155     Cr1159   1.993       .  S
O1155      C1156   1.263       .  A
Cr1157     O1160   1.759       .  S
Cr1158     O1160   1.761       .  S
Cr1159     O1160   1.760       .  S
O1161     Cr1179   1.940       .  S
O1161      C1169   1.253       .  A
O1162     Cr1179   1.984       .  S
O1162      C1163   1.261       .  A
C1163      O1164   1.263       .  A
C1163      C1187   1.463       .  S
O1164     Cr1180   1.988       .  S
O1165     Cr1180   1.979       .  S
O1165      C1166   1.261       .  A
C1166      O1167   1.248       .  A
C1166      C1197   1.451       .  S
O1167     Cr1181   1.948       .  S
O1168     Cr1181   2.033       .  S
O1168      C1169   1.275       .  A
C1169      C1254   1.469       .  S
O1170     Cr1179   1.987       .  S
O1170      C1178   1.258       .  A
O1171     Cr1179   1.933       .  S
O1171      C1172   1.253       .  A
C1172      O1173   1.263       .  A
O1173     Cr1180   2.000       .  S
O1174     Cr1180   1.959       .  S
O1174      C1175   1.258       .  A
C1175      O1176   1.279       .  A
O1176     Cr1181   2.066       .  S
O1177     Cr1181   1.927       .  S
O1177      C1178   1.248       .  A
Cr1179     O1182   1.760       .  S
Cr1180     O1182   1.760       .  S
Cr1181     O1182   1.761       .  S
C1183      C1184   1.408       .  A
C1183      C1188   1.394       .  A
C1183      H1190   1.084       .  S
C1184      C1185   1.405       .  A
C1185      C1186   1.400       .  A
C1185     Br1192   1.918       .  S
C1186      C1187   1.407       .  A
C1186      H1191   1.083       .  S
C1187      C1188   1.401       .  A
C1188     Br1189   1.920       .  S
C1193      C1194   1.403       .  A
C1193      C1198   1.390       .  A
C1193      H1200   1.083       .  S
C1194      C1195   1.415       .  A
C1195      C1196   1.385       .  A
C1195     Br1202   1.923       .  S
C1196      C1197   1.396       .  A
C1196      H1201   1.085       .  S
C1197      C1198   1.409       .  A
C1198     Br1199   1.924       .  S
C1203      C1204   1.409       .  A
C1203      C1208   1.391       .  A
C1203      H1210   1.084       .  S
C1204      C1205   1.406       .  A
C1205      C1206   1.397       .  A
C1205     Br1212   1.914       .  S
C1206      C1207   1.412       .  A
C1206      H1211   1.083       .  S
C1207      C1208   1.407       .  A
C1208     Br1209   1.921       .  S
C1213      C1214   1.407       .  A
C1213      C1218   1.378       .  A
C1213      H1220   1.083       .  S
C1214      C1215   1.415       .  A
C1215      C1216   1.391       .  A
C1215     Br1222   1.922       .  S
C1216      C1217   1.396       .  A
C1216      H1221   1.081       .  S
C1217      C1218   1.397       .  A
C1218     Br1219   1.924       .  S
C1223      C1224   1.412       .  A
C1223      C1228   1.401       .  A
C1223      H1230   1.083       .  S
C1224      C1225   1.408       .  A
C1225      C1226   1.395       .  A
C1225     Br1232   1.923       .  S
C1226      C1227   1.410       .  A
C1226      H1231   1.084       .  S
C1227      C1228   1.407       .  A
C1228     Br1229   1.919       .  S
C1233      C1234   1.397       .  A
C1233      C1238   1.385       .  A
C1233      H1240   1.084       .  S
C1234      C1235   1.403       .  A
C1235      C1236   1.382       .  A
C1235     Br1242   1.916       .  S
C1236      C1237   1.402       .  A
C1236      H1241   1.084       .  S
C1237      C1238   1.414       .  A
C1238     Br1239   1.922       .  S
C1243      C1244   1.400       .  A
C1243      C1248   1.383       .  A
C1243      H1250   1.084       .  S
C1244      C1245   1.413       .  A
C1245      C1246   1.383       .  A
C1245     Br1252   1.925       .  S
C1246      C1247   1.395       .  A
C1246      H1251   1.084       .  S
C1247      C1248   1.408       .  A
C1248     Br1249   1.925       .  S
C1253      C1254   1.410       .  A
C1253      C1258   1.397       .  A
C1253      H1260   1.084       .  S
C1254      C1255   1.403       .  A
C1255      C1256   1.393       .  A
C1255     Br1262   1.919       .  S
C1256      C1257   1.407       .  A
C1256      H1261   1.084       .  S
C1257      C1258   1.405       .  A
C1258     Br1259   1.921       .  S
C1263      C1264   1.404       .  A
C1263      C1268   1.385       .  A
C1263      H1270   1.084       .  S
C1264      C1265   1.413       .  A
C1265      C1266   1.389       .  A
C1265     Br1272   1.924       .  S
C1266      C1267   1.398       .  A
C1266      H1271   1.081       .  S
C1267      C1268   1.406       .  A
C1268     Br1269   1.922       .  S
C1273      C1274   1.398       .  A
C1273      C1278   1.389       .  A
C1273      H1280   1.084       .  S
C1274      C1275   1.412       .  A
C1275      C1276   1.393       .  A
C1275     Br1282   1.924       .  S
C1276      C1277   1.403       .  A
C1276      H1281   1.084       .  S
C1277      C1278   1.415       .  A
C1278     Br1279   1.922       .  S
C1283      C1284   1.407       .  A
C1283      C1288   1.398       .  A
C1283      H1290   1.084       .  S
C1284      C1285   1.401       .  A
C1285      C1286   1.398       .  A
C1285     Br1292   1.921       .  S
C1286      C1287   1.410       .  A
C1286      H1291   1.084       .  S
C1287      C1288   1.404       .  A
C1288     Br1289   1.917       .  S
C1293      C1294   1.408       .  A
C1293      C1298   1.404       .  A
C1293      H1300   1.083       .  S
C1294      C1295   1.412       .  A
C1295      C1296   1.391       .  A
C1295     Br1302   1.923       .  S
C1296      C1297   1.404       .  A
C1296      H1301   1.084       .  S
C1297      C1298   1.410       .  A
C1298     Br1299   1.920       .  S
C1303      C3043   1.523       .  S
C1303      C1306   1.539       .  S
C1303      C1609   1.551       .  S
C1304      C3044   1.522   1_455  S
C1304      C1309   1.650   1_455  S
C1304      C1502   1.634       .  S
C1305      C1313   1.373   1_554  A
C1305      C1308   1.401   1_554  A
C1306      C1317   1.392       .  A
C1306      C2611   1.425       .  A
C1307      C3039   1.519       .  S
C1307      C1321   1.378       .  A
C1307      C1310   1.413   1_655  A
C1308      C3040   1.520       .  S
C1308      C1311   1.374       .  A
C1309      C2608   1.427   1_556  A
C1309      C1315   1.435   1_655  A
C1310      C1318   1.366       .  A
C1311      N1312   1.343       .  A
C1311      H1324   1.082       .  S
N1312      C1313   1.338       .  A
N1312      C1474   1.405       .  S
C1313      H1314   1.080       .  S
C1315      N2618   1.400   1_456  A
C1315      H1325   1.085       .  S
N1316      C2617   1.402       .  A
N1316      C1317   1.356       .  A
N1316      N1339   1.458       .  S
C1317      H1323   1.078       .  S
C1318      N1319   1.341       .  A
C1318      H1320   1.080       .  S
N1319      C1321   1.343   1_455  A
N1319      C1590   1.413       .  S
C1321      H1322   1.081       .  S
C1326      C3064   1.525       .  S
C1326      C1329   1.538       .  S
C1326      C1521   1.557       .  S
C1327      C1331   1.532       .  S
C1327      C1333   1.524       .  S
C1327      C1332   1.663       .  S
C1327      C1568   1.633       .  S
C1328      C3062   1.519       .  S
C1328      C1336   1.378       .  A
C1329      C1340   1.388       .  A
C1329      C2634   1.427   1_456  A
C1330      C1344   1.369       .  A
C1330      C3069   1.399       .  A
C1332      C2631   1.429       .  A
C1332      C1338   1.444       .  A
C1333      C3066   1.397       .  A
C1333      C3077   1.376       .  A
C1334      N1335   1.344       .  A
C1334      H1347   1.080       .  S
N1335      C1336   1.343       .  A
N1335      C1452   1.417       .  S
C1336      H1337   1.081       .  S
C1338      N1339   1.403       .  A
C1338      H1348   1.085       .  S
N1339      C2642   1.354       .  A
C1340      N2641   1.356   1_456  A
C1340      H1346   1.077       .  S
C1341      C3069   1.379       .  A
C1341      N1342   1.345       .  A
C1341      H1343   1.082       .  S
N1342      C1344   1.335       .  A
N1342      C1546   1.405       .  S
C1344      H1345   1.080       .  S
C1349      C1352   1.658       .  S
C1349      C1499   1.636       .  S
C1350      C1355   1.537       .  S
C1350      C1543   1.545       .  S
C1351      C1359   1.365       .  A
C1351      C1354   1.417   1_556  A
C1352      C1363   1.441       .  A
C1353      C1367   1.376       .  A
C1353      C1356   1.401       .  A
C1354      C1357   1.381       .  A
C1355      C1361   1.388       .  A
C1356      C1364   1.372       .  A
C1357      N1358   1.346   1_554  A
C1357      H1370   1.082       .  S
N1358      C1359   1.340       .  A
N1358      C1524   1.416       .  S
C1359      H1360   1.080       .  S
C1361      N1362   1.355       .  A
C1361      H1371   1.077       .  S
C1363      H1369   1.086       .  S
C1364      N1365   1.338       .  A
C1364      H1366   1.081       .  S
N1365      C1367   1.343       .  A
N1365      C1584   1.406       .  S
C1367      H1368   1.082       .  S
C1372      C1374   1.520       .  S
C1372      C1375   1.652       .  S
C1372      C1562   1.638       .  S
C1373      C1378   1.533       .  S
C1373      C1477   1.537       .  S
C1375      C1386   1.435       .  A
C1376      C1390   1.369       .  A
C1376      C1379   1.416       .  A
C1377      C1380   1.371       .  A
C1378      C1384   1.388       .  A
C1379      C1387   1.383       .  A
C1380      N1381   1.337       .  A
C1380      H1393   1.079       .  S
N1381      C1382   1.345       .  A
N1381      C1458   1.405       .  S
C1382      H1383   1.082       .  S
C1384      H1394   1.077       .  S
C1386      H1392   1.085       .  S
C1387      N1388   1.346       .  A
C1387      H1389   1.082       .  S
N1388      C1390   1.341       .  A
N1388      C1606   1.419       .  S
C1390      H1391   1.079       .  S
C1395      C1399   1.528       .  S
C1395      C1398   1.656       .  S
C1395      C1565   1.634       .  S
C1396      C3136   1.530   1_455  S
C1396      C1401   1.533       .  S
C1396      C1587   1.555       .  S
C1397      C1405   1.377       .  A
C1397      C1400   1.401       .  A
C1398      C1409   1.439       .  A
C1398      C2269   1.428   1_565  A
C1399      C3149   1.362       .  A
C1399      C3138   1.415   1_565  A
C1400      C3132   1.534       .  S
C1400      C1403   1.375       .  A
C1401      C2266   1.427   1_455  A
C1401      C1407   1.387       .  A
C1402      C3135   1.415   1_545  A
C1402      C1410   1.377   1_545  A
C1403      N1404   1.341       .  A
C1403      H1416   1.081       .  S
N1404      C1405   1.343       .  A
N1404      C1612   1.409       .  S
C1405      H1406   1.082       .  S
C1407      N3144   1.353   1_455  A
C1407      H1417   1.076       .  S
N1408      C3143   1.355       .  A
C1409      H1415   1.085       .  S
C1410      N1411   1.346       .  A
C1410      H1412   1.082   1_565  S
N1411      C1413   1.341       .  A
N1411      C1540   1.412       .  S
C1413      C3135   1.364       .  A
C1413      H1414   1.080       .  S
C1418      C3156   1.531   1_455  S
C1418      C1421   1.662       .  S
C1418      C1496   1.638       .  S
C1419      C3161   1.528       .  S
C1419      C1424   1.536       .  S
C1419      C1455   1.546       .  S
C1420      C3154   1.530       .  S
C1420      C1428   1.365       .  A
C1420      C1423   1.416       .  A
C1421      C1432   1.443       .  A
C1421      C2292   1.429   1_455  A
C1422      C1436   1.370       .  A
C1422      C1425   1.402   1_455  A
C1423      C1426   1.381       .  A
C1424      C2289   1.426   1_565  A
C1424      C1430   1.389       .  A
C1425      C3155   1.526       .  S
C1425      C1433   1.365   1_655  A
C1426      N1427   1.346       .  A
C1426      H1439   1.082       .  S
N1427      C1428   1.339       .  A
N1427      C1480   1.414       .  S
C1428      H1429   1.080       .  S
C1430      N1431   1.356       .  A
C1430      H1440   1.075       .  S
N1431      C2300   1.402   1_565  A
C1432      N2299   1.403   1_455  A
C1432      H1438   1.086       .  S
C1433      N1434   1.337       .  A
C1433      H1435   1.081       .  S
N1434      C1436   1.341       .  A
N1434      C1518   1.397       .  S
C1436      H1437   1.082       .  S
O1441     Cr1459   1.962       .  S
O1441      C1449   1.262       .  A
O1442     Cr1459   1.972       .  S
O1442      C1443   1.258       .  A
C1443      O1444   1.265       .  A
C1443      C1731   1.488       .  S
O1444     Cr1460   2.009       .  S
O1445     Cr1460   1.980       .  S
O1445      C1446   1.262       .  A
C1446      O1447   1.255       .  A
C1446      C1708   1.462       .  S
O1447     Cr1461   1.961       .  S
O1448     Cr1461   2.024       .  S
O1448      C1449   1.273       .  A
C1449      C1721   1.488       .  S
O1450     Cr1459   1.969       .  S
O1450      C1458   1.253       .  A
O1451     Cr1459   1.940       .  S
O1451      C1452   1.253       .  A
C1452      O1453   1.266       .  A
O1453     Cr1460   2.003       .  S
O1454     Cr1460   1.970       .  S
O1454      C1455   1.260       .  A
C1455      O1456   1.271       .  A
O1456     Cr1461   2.044       .  S
O1457     Cr1461   1.947       .  S
O1457      C1458   1.251       .  A
Cr1459     O1462   1.761       .  S
Cr1460     O1462   1.760       .  S
Cr1461     O1462   1.764       .  S
O1463     Cr1481   1.965       .  S
O1463      C1471   1.259       .  A
O1464     Cr1481   1.957       .  S
O1464      C1465   1.258       .  A
C1465      O1466   1.271       .  A
C1465      C1728   1.484       .  S
O1466     Cr1482   2.019       .  S
O1467     Cr1482   1.949       .  S
O1467      C1468   1.251       .  A
C1468      O1469   1.261       .  A
C1468      C1698   1.461       .  S
O1469     Cr1483   1.969       .  S
O1470     Cr1483   1.999       .  S
O1470      C1471   1.264       .  A
C1471      C1691   1.475       .  S
O1472     Cr1481   1.939       .  S
O1472      C1480   1.255       .  A
O1473     Cr1481   1.977       .  S
O1473      C1474   1.256       .  A
C1474      O1475   1.250       .  A
O1475     Cr1482   1.941       .  S
O1476     Cr1482   2.041       .  S
O1476      C1477   1.270       .  A
C1477      O1478   1.260       .  A
O1478     Cr1483   1.966       .  S
O1479     Cr1483   1.995       .  S
O1479      C1480   1.262       .  A
Cr1481     O1484   1.756       .  S
Cr1482     O1484   1.760       .  S
Cr1483     O1484   1.760       .  S
O1485     Cr1503   1.987       .  S
O1485      C1493   1.257       .  A
O1486     Cr1503   1.965       .  S
O1486      C1487   1.250       .  A
C1487      O1488   1.253       .  A
C1487      C1671   1.467       .  S
O1488     Cr1504   1.982       .  S
O1489     Cr1504   1.939       .  S
O1489      C1490   1.245       .  A
C1490      O1491   1.253       .  A
C1490      C1701   1.436       .  S
O1491     Cr1505   1.977       .  S
O1492     Cr1505   1.949       .  S
O1492      C1493   1.246       .  A
C1493      C1678   1.460       .  S
O1494     Cr1503   2.052       .  S
O1494      C1502   1.299       .  A
O1495     Cr1503   2.119       .  S
O1495      C1496   1.295       .  A
C1496      O1497   1.296       .  A
O1497     Cr1504   2.037       .  S
O1498     Cr1504   2.105       .  S
O1498      C1499   1.290       .  A
C1499      O1500   1.298       .  A
O1500     Cr1505   2.045       .  S
O1501     Cr1505   2.096       .  S
O1501      C1502   1.289       .  A
Cr1503     O1506   1.801       .  S
Cr1504     O1506   1.800       .  S
Cr1505     O1506   1.805       .  S
O1507     Cr1525   1.976       .  S
O1507      C1515   1.258       .  A
O1508     Cr1525   1.953       .  S
O1508      C1509   1.258       .  A
C1509      O1510   1.276       .  A
C1509      C1658   1.485       .  S
O1510     Cr1526   2.037       .  S
O1511     Cr1526   1.949       .  S
O1511      C1512   1.249       .  A
C1512      O1513   1.263       .  A
C1512      C1681   1.458       .  S
O1513     Cr1527   1.977       .  S
O1514     Cr1527   2.003       .  S
O1514      C1515   1.264       .  A
C1515      C1718   1.482       .  S
O1516     Cr1525   1.937       .  S
O1516      C1524   1.256       .  A
O1517     Cr1525   1.974       .  S
O1517      C1518   1.254       .  A
C1518      O1519   1.247       .  A
O1519     Cr1526   1.928       .  S
O1520     Cr1526   2.063       .  S
O1520      C1521   1.277       .  A
C1521      O1522   1.260       .  A
O1522     Cr1527   1.976       .  S
O1523     Cr1527   1.998       .  S
O1523      C1524   1.265       .  A
Cr1525     O1528   1.760       .  S
Cr1526     O1528   1.760       .  S
Cr1527     O1528   1.756       .  S
O1529     Cr1547   1.953       .  S
O1529      C1537   1.258       .  A
O1530     Cr1547   1.966       .  S
O1530      C1531   1.256       .  A
C1531      O1532   1.265       .  A
C1531      C1661   1.480       .  S
O1532     Cr1548   2.009       .  S
O1533     Cr1548   1.975       .  S
O1533      C1534   1.261       .  A
C1534      O1535   1.250       .  A
C1534      C1648   1.445       .  S
O1535     Cr1549   1.946       .  S
O1536     Cr1549   2.019       .  S
O1536      C1537   1.271       .  A
C1537      C1641   1.477       .  S
O1538     Cr1547   1.978       .  S
O1538      C1546   1.255       .  A
O1539     Cr1547   1.935       .  S
O1539      C1540   1.256       .  A
C1540      O1541   1.264       .  A
O1541     Cr1548   1.995       .  S
O1542     Cr1548   1.975       .  S
O1542      C1543   1.262       .  A
C1543      O1544   1.272       .  A
O1544     Cr1549   2.046       .  S
O1545     Cr1549   1.941       .  S
O1545      C1546   1.253       .  A
Cr1547     O1550   1.755       .  S
Cr1548     O1550   1.758       .  S
Cr1549     O1550   1.759       .  S
O1551     Cr1569   1.944       .  S
O1551      C1559   1.245       .  A
O1552     Cr1569   1.985       .  S
O1552      C1553   1.257       .  A
C1553      O1554   1.243       .  A
C1553      C1651   1.461       .  S
O1554     Cr1570   1.947       .  S
O1555     Cr1570   1.992       .  S
O1555      C1556   1.258       .  A
C1556      O1557   1.244       .  A
C1556      C1711   1.462       .  S
O1557     Cr1571   1.946       .  S
O1558     Cr1571   1.986       .  S
O1558      C1559   1.257       .  A
C1559      C1628   1.453       .  S
O1560     Cr1569   2.106       .  S
O1560      C1568   1.291       .  A
O1561     Cr1569   2.041       .  S
O1561      C1562   1.296       .  A
C1562      O1563   1.293       .  A
O1563     Cr1570   2.115       .  S
O1564     Cr1570   2.033       .  S
O1564      C1565   1.295       .  A
C1565      O1566   1.293       .  A
O1566     Cr1571   2.112       .  S
O1567     Cr1571   2.037       .  S
O1567      C1568   1.297       .  A
Cr1569     O1572   1.797       .  S
Cr1570     O1572   1.798       .  S
Cr1571     O1572   1.800       .  S
O1573     Cr1591   1.977       .  S
O1573      C1581   1.258       .  A
O1574     Cr1591   1.955       .  S
O1574      C1575   1.259       .  A
C1575      O1576   1.277       .  A
C1575      C1618   1.479       .  S
O1576     Cr1592   2.036       .  S
O1577     Cr1592   1.957       .  S
O1577      C1578   1.254       .  A
C1578      O1579   1.261       .  A
C1578      C1668   1.461       .  S
O1579     Cr1593   1.988       .  S
O1580     Cr1593   2.003       .  S
O1580      C1581   1.264       .  A
C1581      C1638   1.479       .  S
O1582     Cr1591   1.935       .  S
O1582      C1590   1.253       .  A
O1583     Cr1591   1.978       .  S
O1583      C1584   1.255       .  A
C1584      O1585   1.249       .  A
O1585     Cr1592   1.937       .  S
O1586     Cr1592   2.058       .  S
O1586      C1587   1.276       .  A
C1587      O1588   1.260       .  A
O1588     Cr1593   1.971       .  S
O1589     Cr1593   1.999       .  S
O1589      C1590   1.265       .  A
Cr1591     O1594   1.765       .  S
Cr1592     O1594   1.759       .  S
Cr1593     O1594   1.763       .  S
O1595     Cr1613   1.955       .  S
O1595      C1603   1.255       .  A
O1596     Cr1613   1.985       .  S
O1596      C1597   1.261       .  A
C1597      O1598   1.266       .  A
C1597      C1621   1.475       .  S
O1598     Cr1614   2.000       .  S
O1599     Cr1614   1.982       .  S
O1599      C1600   1.262       .  A
C1600      O1601   1.249       .  A
C1600      C1631   1.457       .  S
O1601     Cr1615   1.949       .  S
O1602     Cr1615   2.012       .  S
O1602      C1603   1.270       .  A
C1603      C1688   1.470       .  S
O1604     Cr1613   1.989       .  S
O1604      C1612   1.259       .  A
O1605     Cr1613   1.942       .  S
O1605      C1606   1.255       .  A
C1606      O1607   1.262       .  A
O1607     Cr1614   1.996       .  S
O1608     Cr1614   1.978       .  S
O1608      C1609   1.262       .  A
C1609      O1610   1.273       .  A
O1610     Cr1615   2.051       .  S
O1611     Cr1615   1.939       .  S
O1611      C1612   1.251       .  A
Cr1613     O1616   1.765       .  S
Cr1614     O1616   1.760       .  S
Cr1615     O1616   1.764       .  S
C1617      C1618   1.411       .  A
C1617      C1622   1.400       .  A
C1617      H1624   1.084       .  S
C1618      C1619   1.407       .  A
C1619      C1620   1.399       .  A
C1619     Br1626   1.921       .  S
C1620      C1621   1.408       .  A
C1620      H1625   1.084       .  S
C1621      C1622   1.404       .  A
C1622     Br1623   1.920       .  S
C1627      C1628   1.399       .  A
C1627      C1632   1.387       .  A
C1627      H1634   1.083       .  S
C1628      C1629   1.410       .  A
C1629      C1630   1.385       .  A
C1629     Br1636   1.925       .  S
C1630      C1631   1.401       .  A
C1630      H1635   1.084       .  S
C1631      C1632   1.413       .  A
C1632     Br1633   1.924       .  S
C1637      C1638   1.410       .  A
C1637      C1642   1.393       .  A
C1637      H1644   1.084       .  S
C1638      C1639   1.406       .  A
C1639      C1640   1.393       .  A
C1639     Br1646   1.910       .  S
C1640      C1641   1.408       .  A
C1640      H1645   1.083       .  S
C1641      C1642   1.409       .  A
C1642     Br1643   1.924       .  S
C1647      C1648   1.396       .  A
C1647      C1652   1.386       .  A
C1647      H1654   1.085       .  S
C1648      C1649   1.406       .  A
C1649      C1650   1.385       .  A
C1649     Br1656   1.923       .  S
C1650      C1651   1.402       .  A
C1650      H1655   1.084       .  S
C1651      C1652   1.416       .  A
C1652     Br1653   1.921       .  S
C1657      C1658   1.415       .  A
C1657      C1662   1.401       .  A
C1657      H1664   1.083       .  S
C1658      C1659   1.409       .  A
C1659      C1660   1.391       .  A
C1659     Br1666   1.922       .  S
C1660      C1661   1.409       .  A
C1660      H1665   1.084       .  S
C1661      C1662   1.405       .  A
C1662     Br1663   1.919       .  S
C1667      C1668   1.400       .  A
C1667      C1672   1.391       .  A
C1667      H1674   1.084       .  S
C1668      C1669   1.405       .  A
C1669      C1670   1.389       .  A
C1669     Br1676   1.911       .  S
C1670      C1671   1.403       .  A
C1670      H1675   1.084       .  S
C1671      C1672   1.412       .  A
C1672     Br1673   1.921       .  S
C1677      C1678   1.403       .  A
C1677      C1682   1.391       .  A
C1677      H1684   1.084       .  S
C1678      C1679   1.410       .  A
C1679      C1680   1.384       .  A
C1679     Br1686   1.923       .  S
C1680      C1681   1.399       .  A
C1680      H1685   1.084       .  S
C1681      C1682   1.412       .  A
C1682     Br1683   1.924       .  S
C1687      C1688   1.410       .  A
C1687      C1692   1.404       .  A
C1687      H1694   1.084       .  S
C1688      C1689   1.409       .  A
C1689      C1690   1.383       .  A
C1689     Br1696   1.927       .  S
C1690      C1691   1.405       .  A
C1690      H1695   1.084       .  S
C1691      C1692   1.410       .  A
C1692     Br1693   1.920       .  S
C1697      C1698   1.406       .  A
C1697      C1702   1.378       .  A
C1697      H1704   1.083       .  S
C1698      C1699   1.417       .  A
C1699      C1700   1.391       .  A
C1699     Br1706   1.925       .  S
C1700      C1701   1.396       .  A
C1700      H1705   1.084       .  S
C1701      C1702   1.399       .  A
C1702     Br1703   1.925       .  S
C1707      C1708   1.403       .  A
C1707      C1712   1.390       .  A
C1707      H1714   1.084       .  S
C1708      C1709   1.410       .  A
C1709      C1710   1.387       .  A
C1709     Br1716   1.922       .  S
C1710      C1711   1.399       .  A
C1710      H1715   1.081       .  S
C1711      C1712   1.413       .  A
C1712     Br1713   1.925       .  S
C1717      C1718   1.407       .  A
C1717      C1722   1.393       .  A
C1717      H1724   1.084       .  S
C1718      C1719   1.407       .  A
C1719      C1720   1.402       .  A
C1719     Br1726   1.920       .  S
C1720      C1721   1.413       .  A
C1720      H1725   1.083       .  S
C1721      C1722   1.414       .  A
C1722     Br1723   1.925       .  S
C1727      C1728   1.413       .  A
C1727      C1732   1.403       .  A
C1727      H1734   1.083       .  S
C1728      C1729   1.411       .  A
C1729      C1730   1.389       .  A
C1729     Br1736   1.927       .  S
C1730      C1731   1.411       .  A
C1730      H1735   1.083       .  S
C1731      C1732   1.410       .  A
C1732     Br1733   1.920       .  S
C1737      C2173   1.527       .  S
C1737      C1740   1.539       .  S
C1737      C2043   1.546       .  S
C1738      C2178   1.533       .  S
C1738      C1743   1.655       .  S
C1738      C1936   1.628       .  S
C1739      C2171   1.520       .  S
C1739      C1747   1.363       .  A
C1739      C1742   1.404       .  A
C1740      C1751   1.390       .  A
C1741      C1755   1.375       .  A
C1741      C1744   1.416       .  A
C1742      C1745   1.373       .  A
C1743      C1749   1.439       .  A
C1744      C2172   1.536   1_554  S
C1744      C1752   1.368       .  A
C1745      N1746   1.344       .  A
C1745      H1758   1.082       .  S
N1746      C1747   1.333       .  A
N1746      C1908   1.396       .  S
C1747      H1748   1.081       .  S
C1749      H1759   1.085       .  S
N1750      C1751   1.357       .  A
N1750      N1773   1.456       .  S
C1751      H1757   1.078       .  S
C1752      N1753   1.342       .  A
C1752      H1754   1.080       .  S
N1753      C1755   1.344       .  A
N1753      C2024   1.414       .  S
C1755      H1756   1.082       .  S
C1760      C2198   1.523       .  S
C1760      C1763   1.537       .  S
C1760      C1955   1.546       .  S
C1761      C1765   1.538   1_554  S
C1761      C1767   1.522   1_655  S
C1761      C1766   1.649       .  S
C1761      C2002   1.627       .  S
C1762      C1770   1.378   1_455  A
C1762      C2199   1.409   1_455  A
C1763      C1774   1.389       .  A
C1764      C2194   1.533   1_554  S
C1764      C1778   1.373       .  A
C1765      C2196   1.418   1_655  A
C1765      C2202   1.369       .  A
C1766      C1772   1.437       .  A
C1768      C2199   1.365       .  A
C1768      N1769   1.339       .  A
C1768      H1781   1.079       .  S
N1769      C1770   1.345       .  A
N1769      C1886   1.413       .  S
C1770      H1771   1.081   1_655  S
C1772      N1773   1.400       .  A
C1772      H1782   1.085       .  S
C1774      H1780   1.078       .  S
C1775      N1776   1.343       .  A
C1775      H1777   1.082       .  S
N1776      C1778   1.340       .  A
N1776      C1980   1.409       .  S
C1778      H1779   1.080       .  S
C1783      C2653   1.531   1_545  S
C1783      C2221   1.521       .  S
C1783      C1786   1.655       .  S
C1783      C1933   1.629       .  S
C1784      C2222   1.523       .  S
C1784      C2658   1.530       .  S
C1784      C1789   1.538       .  S
C1784      C1977   1.549       .  S
C1785      C2651   1.530       .  S
C1785      C1793   1.367       .  A
C1785      C1788   1.412       .  A
C1786      C1797   1.439       .  A
C1786      C3091   1.428   1_545  A
C1787      C2217   1.523   1_554  S
C1787      C1801   1.376       .  A
C1787      C1790   1.403   1_545  A
C1788      C2218   1.519       .  S
C1788      C1791   1.377       .  A
C1789      C3088   1.426       .  A
C1789      C1795   1.390       .  A
C1790      C2652   1.530       .  S
C1790      C1798   1.370   1_565  A
C1791      N1792   1.344       .  A
C1791      H1804   1.082       .  S
N1792      C1793   1.338       .  A
N1792      C1958   1.411       .  S
C1793      H1794   1.080       .  S
C1795      N1796   1.357       .  A
C1795      H1805   1.077       .  S
N1796      C3099   1.400   1_554  A
N1796      N2687   1.456       .  S
C1797      N3098   1.401   1_545  A
C1797      H1803   1.086       .  S
C1798      N1799   1.337       .  A
C1798      H1800   1.081       .  S
N1799      C1801   1.345       .  A
N1799      C2018   1.405       .  S
C1801      H1802   1.082       .  S
C1806      C1808   1.526   1_554  S
C1806      C2678   1.534       .  S
C1806      C1809   1.652       .  S
C1806      C1996   1.620       .  S
C1807      C2679   1.525   1_545  S
C1807      C2247   1.519       .  S
C1807      C1812   1.537       .  S
C1807      C1911   1.546       .  S
C1808      C2250   1.379       .  A
C1808      C2245   1.399       .  A
C1809      C1820   1.438       .  A
C1809      C3114   1.426   1_554  A
C1810      C2674   1.533   1_545  S
C1810      C1824   1.365       .  A
C1810      C1813   1.414   1_554  A
C1811      C2675   1.534       .  S
C1811      C2242   1.404       .  A
C1811      C1814   1.375       .  A
C1812      C3111   1.427   1_545  A
C1812      C1818   1.389       .  A
C1813      C2241   1.521       .  S
C1813      C1821   1.379   1_556  A
C1814      N1815   1.341       .  A
C1814      H1827   1.081       .  S
N1815      C1816   1.341       .  A
N1815      C1892   1.407       .  S
C1816      C2242   1.374       .  A
C1816      H1817   1.082       .  S
C1818      N2253   1.356       .  A
C1818      H1828   1.077       .  S
N1819      C2252   1.358   1_554  A
N1819      C2688   1.400   1_545  A
N1819      N2664   1.458   1_545  S
C1820      N2687   1.400       .  A
C1820      H1826   1.086       .  S
C1821      N1822   1.344       .  A
C1821      H1823   1.082   1_554  S
N1822      C1824   1.341       .  A
N1822      C2040   1.414       .  S
C1824      H1825   1.080       .  S
C1829      C2699   1.525       .  S
C1829      C1833   1.536   1_655  S
C1829      C1832   1.657       .  S
C1829      C1999   1.641       .  S
C1830      C2704   1.521       .  S
C1830      C1835   1.537       .  S
C1830      C2021   1.554       .  S
C1831      C2697   1.512   1_545  S
C1831      C1839   1.366       .  A
C1831      C1834   1.402       .  A
C1832      C1843   1.440       .  A
C1834      C1837   1.365       .  A
C1835      C1841   1.390       .  A
C1836      C2698   1.523       .  S
C1836      C1844   1.380       .  A
C1837      N1838   1.335       .  A
C1837      H1850   1.080       .  S
N1838      C1839   1.339       .  A
N1838      C2046   1.391       .  S
C1839      H1840   1.082       .  S
C1841      H1851   1.075       .  S
N1842      C2711   1.404   1_545  A
N1842      N2733   1.458   1_545  S
C1843      N2710   1.402       .  A
C1843      H1849   1.086       .  S
C1844      N1845   1.345       .  A
C1844      H1846   1.082       .  S
N1845      C1847   1.340       .  A
N1845      C1974   1.412       .  S
C1847      H1848   1.081       .  S
C1852      C2724   1.521   1_545  S
C1852      C1855   1.654       .  S
C1852      C1930   1.639       .  S
C1853      C2725   1.530       .  S
C1853      C1858   1.533       .  S
C1853      C1889   1.545       .  S
C1854      C1862   1.365       .  A
C1854      C1857   1.412   1_545  A
C1855      C1866   1.439       .  A
C1856      C2720   1.524       .  S
C1856      C1870   1.378       .  A
C1856      C1859   1.396       .  A
C1857      C2721   1.519       .  S
C1857      C1860   1.374   1_565  A
C1858      C1864   1.389       .  A
C1859      C1867   1.374       .  A
C1860      N1861   1.343       .  A
C1860      H1873   1.081   1_545  S
N1861      C1862   1.341       .  A
N1861      C1914   1.409       .  S
C1862      H1863   1.080       .  S
C1864      N1865   1.355       .  A
C1864      H1874   1.076       .  S
N1865      N2710   1.457       .  S
C1866      H1872   1.086       .  S
C1867      N1868   1.338       .  A
C1867      H1869   1.080       .  S
N1868      C1870   1.345       .  A
N1868      C1952   1.409       .  S
C1870      H1871   1.082       .  S
O1875     Cr1893   1.958       .  S
O1875      C1883   1.260       .  A
O1876     Cr1893   1.976       .  S
O1876      C1877   1.258       .  A
C1877      O1878   1.264       .  A
C1877      C2165   1.484       .  S
O1878     Cr1894   2.003       .  S
O1879     Cr1894   1.983       .  S
O1879      C1880   1.260       .  A
C1880      O1881   1.250       .  A
C1880      C2142   1.443       .  S
O1881     Cr1895   1.947       .  S
O1882     Cr1895   2.027       .  S
O1882      C1883   1.275       .  A
C1883      C2155   1.481       .  S
O1884     Cr1893   1.984       .  S
O1884      C1892   1.255       .  A
O1885     Cr1893   1.938       .  S
O1885      C1886   1.256       .  A
C1886      O1887   1.265       .  A
O1887     Cr1894   1.996       .  S
O1888     Cr1894   1.962       .  S
O1888      C1889   1.258       .  A
C1889      O1890   1.273       .  A
O1890     Cr1895   2.050       .  S
O1891     Cr1895   1.937       .  S
O1891      C1892   1.248       .  A
Cr1893     O1896   1.758       .  S
Cr1894     O1896   1.763       .  S
Cr1895     O1896   1.761       .  S
O1897     Cr1915   1.964       .  S
O1897      C1905   1.256       .  A
O1898     Cr1915   1.957       .  S
O1898      C1899   1.260       .  A
C1899      O1900   1.272       .  A
C1899      C2162   1.483       .  S
O1900     Cr1916   2.017       .  S
O1901     Cr1916   1.940       .  S
O1901      C1902   1.251       .  A
C1902      O1903   1.262       .  A
C1902      C2132   1.441       .  S
O1903     Cr1917   1.979       .  S
O1904     Cr1917   2.008       .  S
O1904      C1905   1.266       .  A
C1905      C2125   1.482       .  S
O1906     Cr1915   1.933       .  S
O1906      C1914   1.253       .  A
O1907     Cr1915   1.967       .  S
O1907      C1908   1.251       .  A
C1908      O1909   1.249       .  A
O1909     Cr1916   1.935       .  S
O1910     Cr1916   2.046       .  S
O1910      C1911   1.270       .  A
C1911      O1912   1.260       .  A
O1912     Cr1917   1.972       .  S
O1913     Cr1917   1.991       .  S
O1913      C1914   1.264       .  A
Cr1915     O1918   1.763       .  S
Cr1916     O1918   1.760       .  S
Cr1917     O1918   1.757       .  S
O1919     Cr1937   1.984       .  S
O1919      C1927   1.257       .  A
O1920     Cr1937   1.963       .  S
O1920      C1921   1.250       .  A
C1921      O1922   1.252       .  A
C1921      C2105   1.467       .  S
O1922     Cr1938   1.973       .  S
O1923     Cr1938   1.959       .  S
O1923      C1924   1.248       .  A
C1924      O1925   1.255       .  A
C1924      C2135   1.466       .  S
O1925     Cr1939   1.977       .  S
O1926     Cr1939   1.945       .  S
O1926      C1927   1.244       .  A
C1927      C2112   1.462       .  S
O1928     Cr1937   2.042       .  S
O1928      C1936   1.297       .  A
O1929     Cr1937   2.110       .  S
O1929      C1930   1.292       .  A
C1930      O1931   1.298       .  A
O1931     Cr1938   2.049       .  S
O1932     Cr1938   2.100       .  S
O1932      C1933   1.289       .  A
C1933      O1934   1.296       .  A
O1934     Cr1939   2.037       .  S
O1935     Cr1939   2.095       .  S
O1935      C1936   1.288       .  A
Cr1937     O1940   1.802       .  S
Cr1938     O1940   1.796       .  S
Cr1939     O1940   1.799       .  S
O1941     Cr1959   1.981       .  S
O1941      C1949   1.260       .  A
O1942     Cr1959   1.963       .  S
O1942      C1943   1.260       .  A
C1943      O1944   1.271       .  A
C1943      C2092   1.487       .  S
O1944     Cr1960   2.020       .  S
O1945     Cr1960   1.948       .  S
O1945      C1946   1.253       .  A
C1946      O1947   1.258       .  A
C1946      C2115   1.439       .  S
O1947     Cr1961   1.971       .  S
O1948     Cr1961   1.999       .  S
O1948      C1949   1.265       .  A
C1949      C2152   1.478       .  S
O1950     Cr1959   1.940       .  S
O1950      C1958   1.254       .  A
O1951     Cr1959   1.981       .  S
O1951      C1952   1.257       .  A
C1952      O1953   1.252       .  A
O1953     Cr1960   1.946       .  S
O1954     Cr1960   2.043       .  S
O1954      C1955   1.269       .  A
C1955      O1956   1.263       .  A
O1956     Cr1961   1.978       .  S
O1957     Cr1961   1.983       .  S
O1957      C1958   1.260       .  A
Cr1959     O1962   1.761       .  S
Cr1960     O1962   1.759       .  S
Cr1961     O1962   1.761       .  S
O1963     Cr1981   1.943       .  S
O1963      C1971   1.255       .  A
O1964     Cr1981   1.983       .  S
O1964      C1965   1.260       .  A
C1965      O1966   1.265       .  A
C1965      C2095   1.488       .  S
O1966     Cr1982   2.007       .  S
O1967     Cr1982   1.980       .  S
O1967      C1968   1.260       .  A
C1968      O1969   1.251       .  A
C1968      C2082   1.445       .  S
O1969     Cr1983   1.947       .  S
O1970     Cr1983   2.038       .  S
O1970      C1971   1.277       .  A
C1971      C2075   1.473       .  S
O1972     Cr1981   1.992       .  S
O1972      C1980   1.258       .  A
O1973     Cr1981   1.927       .  S
O1973      C1974   1.253       .  A
C1974      O1975   1.265       .  A
O1975     Cr1982   1.998       .  S
O1976     Cr1982   1.975       .  S
O1976      C1977   1.261       .  A
C1977      O1978   1.274       .  A
O1978     Cr1983   2.052       .  S
O1979     Cr1983   1.937       .  S
O1979      C1980   1.249       .  A
Cr1981     O1984   1.760       .  S
Cr1982     O1984   1.762       .  S
Cr1983     O1984   1.760       .  S
O1985     Cr2003   1.949       .  S
O1985      C1993   1.246       .  A
O1986     Cr2003   1.982       .  S
O1986      C1987   1.255       .  A
C1987      O1988   1.248       .  A
C1987      C2085   1.470       .  S
O1988     Cr2004   1.958       .  S
O1989     Cr2004   1.974       .  S
O1989      C1990   1.256       .  A
C1990      O1991   1.249       .  A
C1990      C2145   1.469       .  S
O1991     Cr2005   1.964       .  S
O1992     Cr2005   1.984       .  S
O1992      C1993   1.256       .  A
C1993      C2062   1.464       .  S
O1994     Cr2003   2.092       .  S
O1994      C2002   1.286       .  A
O1995     Cr2003   2.029       .  S
O1995      C1996   1.293       .  A
C1996      O1997   1.288       .  A
O1997     Cr2004   2.094       .  S
O1998     Cr2004   2.052       .  S
O1998      C1999   1.298       .  A
C1999      O2000   1.292       .  A
O2000     Cr2005   2.109       .  S
O2001     Cr2005   2.046       .  S
O2001      C2002   1.298       .  A
Cr2003     O2006   1.802       .  S
Cr2004     O2006   1.800       .  S
Cr2005     O2006   1.801       .  S
O2007     Cr2025   1.976       .  S
O2007      C2015   1.259       .  A
O2008     Cr2025   1.960       .  S
O2008      C2009   1.258       .  A
C2009      O2010   1.270       .  A
C2009      C2052   1.481       .  S
O2010     Cr2026   2.012       .  S
O2011     Cr2026   1.946       .  S
O2011      C2012   1.252       .  A
C2012      O2013   1.260       .  A
C2012      C2102   1.442       .  S
O2013     Cr2027   1.982       .  S
O2014     Cr2027   1.993       .  S
O2014      C2015   1.263       .  A
C2015      C2072   1.468       .  S
O2016     Cr2025   1.938       .  S
O2016      C2024   1.253       .  A
O2017     Cr2025   1.978       .  S
O2017      C2018   1.256       .  A
C2018      O2019   1.252       .  A
O2019     Cr2026   1.940       .  S
O2020     Cr2026   2.052       .  S
O2020      C2021   1.273       .  A
C2021      O2022   1.261       .  A
O2022     Cr2027   1.975       .  S
O2023     Cr2027   1.992       .  S
O2023      C2024   1.263       .  A
Cr2025     O2028   1.765       .  S
Cr2026     O2028   1.759       .  S
Cr2027     O2028   1.761       .  S
O2029     Cr2047   1.956       .  S
O2029      C2037   1.260       .  A
O2030     Cr2047   1.962       .  S
O2030      C2031   1.255       .  A
C2031      O2032   1.265       .  A
C2031      C2055   1.485       .  S
O2032     Cr2048   2.009       .  S
O2033     Cr2048   1.976       .  S
O2033      C2034   1.263       .  A
C2034      O2035   1.252       .  A
C2034      C2065   1.450       .  S
O2035     Cr2049   1.947       .  S
O2036     Cr2049   2.028       .  S
O2036      C2037   1.275       .  A
C2037      C2122   1.478       .  S
O2038     Cr2047   1.961       .  S
O2038      C2046   1.251       .  A
O2039     Cr2047   1.933       .  S
O2039      C2040   1.254       .  A
C2040      O2041   1.265       .  A
O2041     Cr2048   2.000       .  S
O2042     Cr2048   1.978       .  S
O2042      C2043   1.261       .  A
C2043      O2044   1.271       .  A
O2044     Cr2049   2.044       .  S
O2045     Cr2049   1.932       .  S
O2045      C2046   1.247       .  A
Cr2047     O2050   1.761       .  S
Cr2048     O2050   1.756       .  S
Cr2049     O2050   1.760       .  S
C2051      C2052   1.413       .  A
C2051      C2056   1.404       .  A
C2051      H2058   1.083       .  S
C2052      C2053   1.411       .  A
C2053      C2054   1.385       .  A
C2053     Br2060   1.929       .  S
C2054      C2055   1.409       .  A
C2054      H2059   1.083       .  S
C2055      C2056   1.409       .  A
C2056     Br2057   1.920       .  S
C2061      C2062   1.405       .  A
C2061      C2066   1.388       .  A
C2061      H2068   1.084       .  S
C2062      C2063   1.414       .  A
C2063      C2064   1.385       .  A
C2063     Br2070   1.925       .  S
C2064      C2065   1.397       .  A
C2064      H2069   1.085       .  S
C2065      C2066   1.408       .  A
C2066     Br2067   1.924       .  S
C2071      C2072   1.408       .  A
C2071      C2076   1.394       .  A
C2071      H2078   1.084       .  S
C2072      C2073   1.403       .  A
C2073      C2074   1.396       .  A
C2073     Br2080   1.920       .  S
C2074      C2075   1.411       .  A
C2074      H2079   1.084       .  S
C2075      C2076   1.405       .  A
C2076     Br2077   1.920       .  S
C2081      C2082   1.394       .  A
C2081      C2086   1.390       .  A
C2081      H2088   1.084       .  S
C2082      C2083   1.405       .  A
C2083      C2084   1.388       .  A
C2083     Br2090   1.925       .  S
C2084      C2085   1.406       .  A
C2084      H2089   1.083       .  S
C2085      C2086   1.418       .  A
C2086     Br2087   1.923       .  S
C2091      C2092   1.412       .  A
C2091      C2096   1.402       .  A
C2091      H2098   1.083       .  S
C2092      C2093   1.413       .  A
C2093      C2094   1.394       .  A
C2093     Br2100   1.926       .  S
C2094      C2095   1.409       .  A
C2094      H2099   1.084       .  S
C2095      C2096   1.410       .  A
C2096     Br2097   1.919       .  S
C2101      C2102   1.394       .  A
C2101      C2106   1.382       .  A
C2101      H2108   1.085       .  S
C2102      C2103   1.400       .  A
C2103      C2104   1.393       .  A
C2103     Br2110   1.921       .  S
C2104      C2105   1.411       .  A
C2104      H2109   1.083       .  S
C2105      C2106   1.416       .  A
C2106     Br2107   1.927       .  S
C2111      C2112   1.403       .  A
C2111      C2116   1.382       .  A
C2111      H2118   1.083       .  S
C2112      C2113   1.418       .  A
C2113      C2114   1.388       .  A
C2113     Br2120   1.926       .  S
C2114      C2115   1.395       .  A
C2114      H2119   1.084       .  S
C2115      C2116   1.403       .  A
C2116     Br2117   1.924       .  S
C2121      C2122   1.410       .  A
C2121      C2126   1.403       .  A
C2121      H2128   1.083       .  S
C2122      C2123   1.411       .  A
C2123      C2124   1.389       .  A
C2123     Br2130   1.928       .  S
C2124      C2125   1.409       .  A
C2124      H2129   1.084       .  S
C2125      C2126   1.408       .  A
C2126     Br2127   1.918       .  S
C2131      C2132   1.392       .  A
C2131      C2136   1.385       .  A
C2131      H2138   1.085       .  S
C2132      C2133   1.406       .  A
C2133      C2134   1.386       .  A
C2133     Br2140   1.925       .  S
C2134      C2135   1.406       .  A
C2134      H2139   1.083       .  S
C2135      C2136   1.416       .  A
C2136     Br2137   1.918       .  S
C2141      C2142   1.394       .  A
C2141      C2146   1.392       .  A
C2141      H2148   1.084       .  S
C2142      C2143   1.403       .  A
C2143      C2144   1.383       .  A
C2143     Br2150   1.922       .  S
C2144      C2145   1.404       .  A
C2144      H2149   1.083       .  S
C2145      C2146   1.417       .  A
C2146     Br2147   1.916       .  S
C2151      C2152   1.408       .  A
C2151      C2156   1.393       .  A
C2151      H2158   1.084       .  S
C2152      C2153   1.407       .  A
C2153      C2154   1.401       .  A
C2153     Br2160   1.920       .  S
C2154      C2155   1.412       .  A
C2154      H2159   1.083       .  S
C2155      C2156   1.409       .  A
C2156     Br2157   1.924       .  S
C2161      C2162   1.413       .  A
C2161      C2166   1.404       .  A
C2161      H2168   1.083       .  S
C2162      C2163   1.413       .  A
C2163      C2164   1.386       .  A
C2163     Br2170   1.929       .  S
C2164      C2165   1.408       .  A
C2164      H2169   1.083       .  S
C2165      C2166   1.409       .  A
C2166     Br2167   1.920       .  S
C2171      C2174   1.540       .  S
C2171      C2477   1.557       .  S
C2172      C2177   1.651       .  S
C2172      C2370   1.633       .  S
C2173      C2181   1.369   1_554  A
C2173      C2176   1.406   1_554  A
C2174      C2185   1.390       .  A
C2175      C2189   1.380       .  A
C2175      C2178   1.414       .  A
C2176      C2179   1.376       .  A
C2177      C2183   1.436       .  A
C2178      C2186   1.369       .  A
C2179      N2180   1.341       .  A
C2179      H2192   1.082       .  S
N2180      C2181   1.338       .  A
N2180      C2342   1.404       .  S
C2181      H2182   1.081       .  S
C2183      H2193   1.085       .  S
N2184      C2185   1.356       .  A
N2184      N2207   1.457   1_655  S
C2185      H2191   1.078       .  S
C2186      N2187   1.340       .  A
C2186      H2188   1.080       .  S
N2187      C2189   1.346       .  A
N2187      C2458   1.417       .  S
C2189      H2190   1.082       .  S
C2194      C2197   1.541       .  S
C2194      C2389   1.562       .  S
C2195      C2199   1.530       .  S
C2195      C2201   1.520   1_655  S
C2195      C2200   1.654       .  S
C2195      C2436   1.619       .  S
C2196      C2204   1.376   1_455  A
C2197      C2208   1.390       .  A
C2198      C2212   1.368       .  A
C2200      C2206   1.439       .  A
C2202      N2203   1.344       .  A
C2202      H2215   1.081       .  S
N2203      C2204   1.341       .  A
N2203      C2320   1.414       .  S
C2204      H2205   1.081   1_655  S
C2206      N2207   1.402   1_655  A
C2206      H2216   1.085       .  S
C2208      H2214   1.078       .  S
C2209      N2210   1.343       .  A
C2209      H2211   1.082       .  S
N2210      C2212   1.336       .  A
N2210      C2414   1.404       .  S
C2212      H2213   1.081       .  S
C2217      C3087   1.535   1_545  S
C2217      C2220   1.654   1_556  S
C2217      C2367   1.633       .  S
C2218      C3092   1.531       .  S
C2218      C2223   1.538       .  S
C2218      C2411   1.545       .  S
C2219      C3085   1.531       .  S
C2219      C2227   1.366       .  A
C2219      C2222   1.414   1_556  A
C2220      C2231   1.439   1_554  A
C2220      C2657   1.428   1_545  A
C2221      C2235   1.376       .  A
C2221      C2224   1.405   1_545  A
C2222      C2225   1.379       .  A
C2223      C2654   1.425       .  A
C2223      C2229   1.390       .  A
C2224      C3086   1.529       .  S
C2224      C2232   1.369   1_565  A
C2225      N2226   1.345   1_554  A
C2225      H2238   1.081       .  S
N2226      C2227   1.339       .  A
N2226      C2392   1.415       .  S
C2227      H2228   1.080       .  S
C2229      N2230   1.357       .  A
C2229      H2239   1.077       .  S
N2230      C2665   1.400       .  A
N2230      N3121   1.456       .  S
C2231      N2664   1.400   1_546  A
C2231      H2237   1.086       .  S
C2232      N2233   1.338       .  A
C2232      H2234   1.081       .  S
N2233      C2235   1.342       .  A
N2233      C2452   1.405       .  S
C2235      H2236   1.082       .  S
C2240      C2242   1.519       .  S
C2240      C3112   1.534       .  S
C2240      C2243   1.653       .  S
C2240      C2430   1.632       .  S
C2241      C3113   1.531       .  S
C2241      C2246   1.541       .  S
C2241      C2345   1.554       .  S
C2243      C2254   1.437       .  A
C2243      C2680   1.429       .  A
C2244      C3108   1.531   1_545  S
C2244      C2258   1.365       .  A
C2244      C2247   1.412       .  A
C2245      C3109   1.527       .  S
C2245      C2248   1.370       .  A
C2246      C2677   1.428   1_546  A
C2246      C2252   1.392       .  A
C2247      C2255   1.376       .  A
C2248      N2249   1.337       .  A
C2248      H2261   1.081       .  S
N2249      C2250   1.345       .  A
N2249      C2326   1.407       .  S
C2250      H2251   1.082       .  S
C2252      H2262   1.076       .  S
N2253      C3122   1.402   1_545  A
N2253      N3098   1.457   1_545  S
C2254      N3121   1.400       .  A
C2254      H2260   1.086       .  S
C2255      N2256   1.344       .  A
C2255      H2257   1.082       .  S
N2256      C2258   1.339       .  A
N2256      C2474   1.411       .  S
C2258      H2259   1.079       .  S
C2263      C3133   1.521       .  S
C2263      C2267   1.534   1_655  S
C2263      C2266   1.659       .  S
C2263      C2433   1.636       .  S
C2264      C3138   1.519       .  S
C2264      C2269   1.539       .  S
C2264      C2455   1.553       .  S
C2265      C3131   1.522   1_545  S
C2265      C2273   1.373       .  A
C2265      C2268   1.404   1_655  A
C2266      C2277   1.442       .  A
C2268      C2271   1.369   1_455  A
C2269      C2275   1.391       .  A
C2270      C3132   1.522       .  S
C2270      C2278   1.381       .  A
C2271      N2272   1.334       .  A
C2271      H2284   1.079       .  S
N2272      C2273   1.342       .  A
N2272      C2480   1.400       .  S
C2273      H2274   1.082       .  S
C2275      H2285   1.076       .  S
N2276      C3145   1.401   1_545  A
N2276      N3167   1.457       .  S
C2277      N3144   1.403       .  A
C2277      H2283   1.086       .  S
C2278      N2279   1.345       .  A
C2278      H2280   1.082       .  S
N2279      C2281   1.341       .  A
N2279      C2408   1.416       .  S
C2281      H2282   1.080       .  S
C2286      C3158   1.525   1_545  S
C2286      C2289   1.656       .  S
C2286      C2364   1.625       .  S
C2287      C3159   1.520       .  S
C2287      C2292   1.535       .  S
C2287      C2323   1.553       .  S
C2288      C2296   1.361       .  A
C2288      C2291   1.415   1_545  A
C2289      C2300   1.440       .  A
C2290      C3154   1.519       .  S
C2290      C2304   1.373       .  A
C2290      C2293   1.405       .  A
C2291      C3155   1.522       .  S
C2291      C2294   1.375   1_565  A
C2292      C2298   1.389       .  A
C2293      C2301   1.367       .  A
C2294      N2295   1.346       .  A
C2294      H2307   1.082   1_545  S
N2295      C2296   1.339       .  A
N2295      C2348   1.409       .  S
C2296      H2297   1.080       .  S
C2298      N2299   1.354       .  A
C2298      H2308   1.076       .  S
N2299      N3144   1.458       .  S
C2300      H2306   1.086       .  S
C2301      N2302   1.336       .  A
C2301      H2303   1.081       .  S
N2302      C2304   1.341       .  A
N2302      C2386   1.399       .  S
C2304      H2305   1.082       .  S
O2309     Cr2327   1.964       .  S
O2309      C2317   1.259       .  A
O2310     Cr2327   1.977       .  S
O2310      C2311   1.258       .  A
C2311      O2312   1.265       .  A
C2311      C2599   1.492       .  S
O2312     Cr2328   2.020       .  S
O2313     Cr2328   1.982       .  S
O2313      C2314   1.263       .  A
C2314      O2315   1.252       .  A
C2314      C2576   1.452       .  S
O2315     Cr2329   1.947       .  S
O2316     Cr2329   2.016       .  S
O2316      C2317   1.272       .  A
C2317      C2589   1.485       .  S
O2318     Cr2327   1.984       .  S
O2318      C2326   1.257       .  A
O2319     Cr2327   1.929       .  S
O2319      C2320   1.251       .  A
C2320      O2321   1.267       .  A
O2321     Cr2328   2.001       .  S
O2322     Cr2328   1.984       .  S
O2322      C2323   1.263       .  A
C2323      O2324   1.271       .  A
O2324     Cr2329   2.046       .  S
O2325     Cr2329   1.944       .  S
O2325      C2326   1.252       .  A
Cr2327     O2330   1.765       .  S
Cr2328     O2330   1.760       .  S
Cr2329     O2330   1.756       .  S
O2331     Cr2349   1.966       .  S
O2331      C2339   1.258       .  A
O2332     Cr2349   1.958       .  S
O2332      C2333   1.259       .  A
C2333      O2334   1.281       .  A
C2333      C2596   1.494       .  S
O2334     Cr2350   2.046       .  S
O2335     Cr2350   1.942       .  S
O2335      C2336   1.249       .  A
C2336      O2337   1.257       .  A
C2336      C2566   1.432       .  S
O2337     Cr2351   1.969       .  S
O2338     Cr2351   2.003       .  S
O2338      C2339   1.265       .  A
C2339      C2559   1.471       .  S
O2340     Cr2349   1.940       .  S
O2340      C2348   1.256       .  A
O2341     Cr2349   1.981       .  S
O2341      C2342   1.253       .  A
C2342      O2343   1.245       .  A
O2343     Cr2350   1.928       .  S
O2344     Cr2350   2.062       .  S
O2344      C2345   1.276       .  A
C2345      O2346   1.259       .  A
O2346     Cr2351   1.967       .  S
O2347     Cr2351   1.985       .  S
O2347      C2348   1.262       .  A
Cr2349     O2352   1.762       .  S
Cr2350     O2352   1.757       .  S
Cr2351     O2352   1.763       .  S
O2353     Cr2371   1.982       .  S
O2353      C2361   1.255       .  A
O2354     Cr2371   1.967       .  S
O2354      C2355   1.253       .  A
C2355      O2356   1.250       .  A
C2355      C2539   1.466       .  S
O2356     Cr2372   1.973       .  S
O2357     Cr2372   1.952       .  S
O2357      C2358   1.247       .  A
C2358      O2359   1.255       .  A
C2358      C2569   1.454       .  S
O2359     Cr2373   1.964       .  S
O2360     Cr2373   1.964       .  S
O2360      C2361   1.247       .  A
C2361      C2546   1.472       .  S
O2362     Cr2371   2.050       .  S
O2362      C2370   1.298       .  A
O2363     Cr2371   2.100       .  S
O2363      C2364   1.289       .  A
C2364      O2365   1.297       .  A
O2365     Cr2372   2.036       .  S
O2366     Cr2372   2.097       .  S
O2366      C2367   1.288       .  A
C2367      O2368   1.297       .  A
O2368     Cr2373   2.047       .  S
O2369     Cr2373   2.098       .  S
O2369      C2370   1.290       .  A
Cr2371     O2374   1.799       .  S
Cr2372     O2374   1.805       .  S
Cr2373     O2374   1.798       .  S
O2375     Cr2393   1.973       .  S
O2375      C2383   1.257       .  A
O2376     Cr2393   1.958       .  S
O2376      C2377   1.261       .  A
C2377      O2378   1.279       .  A
C2377      C2526   1.485       .  S
O2378     Cr2394   2.040       .  S
O2379     Cr2394   1.949       .  S
O2379      C2380   1.252       .  A
C2380      O2381   1.260       .  A
C2380      C2549   1.450       .  S
O2381     Cr2395   1.977       .  S
O2382     Cr2395   2.015       .  S
O2382      C2383   1.266       .  A
C2383      C2586   1.491       .  S
O2384     Cr2393   1.941       .  S
O2384      C2392   1.256       .  A
O2385     Cr2393   1.974       .  S
O2385      C2386   1.253       .  A
C2386      O2387   1.247       .  A
O2387     Cr2394   1.930       .  S
O2388     Cr2394   2.063       .  S
O2388      C2389   1.277       .  A
C2389      O2390   1.262       .  A
O2390     Cr2395   1.981       .  S
O2391     Cr2395   1.995       .  S
O2391      C2392   1.265       .  A
Cr2393     O2396   1.764       .  S
Cr2394     O2396   1.760       .  S
Cr2395     O2396   1.760       .  S
O2397     Cr2415   1.952       .  S
O2397      C2405   1.257       .  A
O2398     Cr2415   1.981       .  S
O2398      C2399   1.259       .  A
C2399      O2400   1.264       .  A
C2399      C2529   1.476       .  S
O2400     Cr2416   1.999       .  S
O2401     Cr2416   1.976       .  S
O2401      C2402   1.262       .  A
C2402      O2403   1.249       .  A
C2402      C2516   1.442       .  S
O2403     Cr2417   1.941       .  S
O2404     Cr2417   2.032       .  S
O2404      C2405   1.275       .  A
C2405      C2509   1.480       .  S
O2406     Cr2415   1.984       .  S
O2406      C2414   1.256       .  A
O2407     Cr2415   1.937       .  S
O2407      C2408   1.254       .  A
C2408      O2409   1.265       .  A
O2409     Cr2416   1.999       .  S
O2410     Cr2416   1.965       .  S
O2410      C2411   1.259       .  A
C2411      O2412   1.275       .  A
O2412     Cr2417   2.056       .  S
O2413     Cr2417   1.931       .  S
O2413      C2414   1.250       .  A
Cr2415     O2418   1.759       .  S
Cr2416     O2418   1.759       .  S
Cr2417     O2418   1.762       .  S
O2419     Cr2437   1.955       .  S
O2419      C2427   1.247       .  A
O2420     Cr2437   1.980       .  S
O2420      C2421   1.255       .  A
C2421      O2422   1.245       .  A
C2421      C2519   1.456       .  S
O2422     Cr2438   1.944       .  S
O2423     Cr2438   1.981       .  S
O2423      C2424   1.256       .  A
C2424      O2425   1.244       .  A
C2424      C2579   1.459       .  S
O2425     Cr2439   1.947       .  S
O2426     Cr2439   1.985       .  S
O2426      C2427   1.256       .  A
C2427      C2496   1.464       .  S
O2428     Cr2437   2.095       .  S
O2428      C2436   1.289       .  A
O2429     Cr2437   2.044       .  S
O2429      C2430   1.298       .  A
C2430      O2431   1.289       .  A
O2431     Cr2438   2.100       .  S
O2432     Cr2438   2.041       .  S
O2432      C2433   1.297       .  A
C2433      O2434   1.291       .  A
O2434     Cr2439   2.109       .  S
O2435     Cr2439   2.026       .  S
O2435      C2436   1.294       .  A
Cr2437     O2440   1.800       .  S
Cr2438     O2440   1.794       .  S
Cr2439     O2440   1.797       .  S
O2441     Cr2459   1.976       .  S
O2441      C2449   1.258       .  A
O2442     Cr2459   1.958       .  S
O2442      C2443   1.259       .  A
C2443      O2444   1.277       .  A
C2443      C2486   1.488       .  S
O2444     Cr2460   2.043       .  S
O2445     Cr2460   1.941       .  S
O2445      C2446   1.250       .  A
C2446      O2447   1.260       .  A
C2446      C2536   1.441       .  S
O2447     Cr2461   1.982       .  S
O2448     Cr2461   2.001       .  S
O2448      C2449   1.265       .  A
C2449      C2506   1.475       .  S
O2450     Cr2459   1.945       .  S
O2450      C2458   1.256       .  A
O2451     Cr2459   1.983       .  S
O2451      C2452   1.256       .  A
C2452      O2453   1.248       .  A
O2453     Cr2460   1.930       .  S
O2454     Cr2460   2.061       .  S
O2454      C2455   1.276       .  A
C2455      O2456   1.261       .  A
O2456     Cr2461   1.972       .  S
O2457     Cr2461   1.997       .  S
O2457      C2458   1.264       .  A
Cr2459     O2462   1.762       .  S
Cr2460     O2462   1.762       .  S
Cr2461     O2462   1.761       .  S
O2463     Cr2481   1.950       .  S
O2463      C2471   1.255       .  A
O2464     Cr2481   1.981       .  S
O2464      C2465   1.259       .  A
C2465      O2466   1.267       .  A
C2465      C2489   1.485       .  S
O2466     Cr2482   2.005       .  S
O2467     Cr2482   1.970       .  S
O2467      C2468   1.259       .  A
C2468      O2469   1.253       .  A
C2468      C2499   1.446       .  S
O2469     Cr2483   1.953       .  S
O2470     Cr2483   2.027       .  S
O2470      C2471   1.273       .  A
C2471      C2556   1.467       .  S
O2472     Cr2481   1.970       .  S
O2472      C2480   1.255       .  A
O2473     Cr2481   1.935       .  S
O2473      C2474   1.252       .  A
C2474      O2475   1.261       .  A
O2475     Cr2482   1.986       .  S
O2476     Cr2482   1.986       .  S
O2476      C2477   1.265       .  A
C2477      O2478   1.273       .  A
O2478     Cr2483   2.053       .  S
O2479     Cr2483   1.935       .  S
O2479      C2480   1.250       .  A
Cr2481     O2484   1.763       .  S
Cr2482     O2484   1.754       .  S
Cr2483     O2484   1.763       .  S
C2485      C2486   1.411       .  A
C2485      C2490   1.399       .  A
C2485      H2492   1.083       .  S
C2486      C2487   1.409       .  A
C2487      C2488   1.402       .  A
C2487     Br2494   1.922       .  S
C2488      C2489   1.412       .  A
C2488      H2493   1.084       .  S
C2489      C2490   1.406       .  A
C2490     Br2491   1.919       .  S
C2495      C2496   1.404       .  A
C2495      C2500   1.386       .  A
C2495      H2502   1.083       .  S
C2496      C2497   1.415       .  A
C2497      C2498   1.388       .  A
C2497     Br2504   1.925       .  S
C2498      C2499   1.398       .  A
C2498      H2503   1.084       .  S
C2499      C2500   1.406       .  A
C2500     Br2501   1.925       .  S
C2505      C2506   1.408       .  A
C2505      C2510   1.393       .  A
C2505      H2512   1.084       .  S
C2506      C2507   1.405       .  A
C2507      C2508   1.398       .  A
C2507     Br2514   1.919       .  S
C2508      C2509   1.413       .  A
C2508      H2513   1.083       .  S
C2509      C2510   1.409       .  A
C2510     Br2511   1.922       .  S
C2515      C2516   1.394       .  A
C2515      C2520   1.382       .  A
C2515      H2522   1.085       .  S
C2516      C2517   1.408       .  A
C2517      C2518   1.387       .  A
C2517     Br2524   1.925       .  S
C2518      C2519   1.403       .  A
C2518      H2523   1.083       .  S
C2519      C2520   1.413       .  A
C2520     Br2521   1.924       .  S
C2525      C2526   1.413       .  A
C2525      C2530   1.402       .  A
C2525      H2532   1.083       .  S
C2526      C2527   1.409       .  A
C2527      C2528   1.395       .  A
C2527     Br2534   1.921       .  S
C2528      C2529   1.406       .  A
C2528      H2533   1.084       .  S
C2529      C2530   1.405       .  A
C2530     Br2531   1.920       .  S
C2535      C2536   1.396       .  A
C2535      C2540   1.387       .  A
C2535      H2542   1.085       .  S
C2536      C2537   1.396       .  A
C2537      C2538   1.388       .  A
C2537     Br2544   1.918       .  S
C2538      C2539   1.407       .  A
C2538      H2543   1.083       .  S
C2539      C2540   1.418       .  A
C2540     Br2541   1.928       .  S
C2545      C2546   1.406       .  A
C2545      C2550   1.388       .  A
C2545      H2552   1.083       .  S
C2546      C2547   1.416       .  A
C2547      C2548   1.390       .  A
C2547     Br2554   1.923       .  S
C2548      C2549   1.397       .  A
C2548      H2553   1.084       .  S
C2549      C2550   1.407       .  A
C2550     Br2551   1.925       .  S
C2555      C2556   1.408       .  A
C2555      C2560   1.401       .  A
C2555      H2562   1.084       .  S
C2556      C2557   1.408       .  A
C2557      C2558   1.387       .  A
C2557     Br2564   1.924       .  S
C2558      C2559   1.406       .  A
C2558      H2563   1.084       .  S
C2559      C2560   1.407       .  A
C2560     Br2561   1.918       .  S
C2565      C2566   1.392       .  A
C2565      C2570   1.387       .  A
C2565      H2572   1.084       .  S
C2566      C2567   1.404       .  A
C2567      C2568   1.377       .  A
C2567     Br2574   1.919       .  S
C2568      C2569   1.400       .  A
C2568      H2573   1.084       .  S
C2569      C2570   1.414       .  A
C2570     Br2571   1.916       .  S
C2575      C2576   1.399       .  A
C2575      C2580   1.388       .  A
C2575      H2582   1.084       .  S
C2576      C2577   1.408       .  A
C2577      C2578   1.385       .  A
C2577     Br2584   1.924       .  S
C2578      C2579   1.401       .  A
C2578      H2583   1.083       .  S
C2579      C2580   1.414       .  A
C2580     Br2581   1.925       .  S
C2585      C2586   1.409       .  A
C2585      C2590   1.388       .  A
C2585      H2592   1.083       .  S
C2586      C2587   1.412       .  A
C2587      C2588   1.407       .  A
C2587     Br2594   1.919       .  S
C2588      C2589   1.413       .  A
C2588      H2593   1.083       .  S
C2589      C2590   1.413       .  A
C2590     Br2591   1.929       .  S
C2595      C2596   1.418       .  A
C2595      C2600   1.411       .  A
C2595      H2602   1.083       .  S
C2596      C2597   1.407       .  A
C2597      C2598   1.391       .  A
C2597     Br2604   1.921       .  S
C2598      C2599   1.409       .  A
C2598      H2603   1.083       .  S
C2599      C2600   1.411       .  A
C2600     Br2601   1.921       .  S
C2605      C3041   1.529       .  S
C2605      C2608   1.539       .  S
C2605      C2911   1.550       .  S
C2606      C3046   1.536       .  S
C2606      C2611   1.652       .  S
C2606      C2804   1.632       .  S
C2607      C3039   1.526       .  S
C2607      C2615   1.368       .  A
C2607      C2610   1.404       .  A
C2608      C2619   1.391       .  A
C2609      C2623   1.377       .  A
C2609      C2612   1.416       .  A
C2610      C2613   1.378       .  A
C2611      C2617   1.439       .  A
C2612      C3040   1.535   1_554  S
C2612      C2620   1.366       .  A
C2613      N2614   1.344       .  A
C2613      H2626   1.082       .  S
N2614      C2615   1.340       .  A
N2614      C2776   1.406       .  S
C2615      H2616   1.081       .  S
C2617      H2627   1.085       .  S
N2618      C2619   1.357       .  A
N2618      N2641   1.455       .  S
C2619      H2625   1.078       .  S
C2620      N2621   1.341       .  A
C2620      H2622   1.080       .  S
N2621      C2623   1.344       .  A
N2621      C2892   1.413       .  S
C2623      H2624   1.082       .  S
C2628      C3066   1.532       .  S
C2628      C2631   1.535       .  S
C2628      C2823   1.550       .  S
C2629      C2633   1.530   1_554  S
C2629      C2635   1.522   1_655  S
C2629      C2634   1.652       .  S
C2629      C2870   1.623       .  S
C2630      C2638   1.379   1_455  A
C2630      C3067   1.417   1_455  A
C2631      C2642   1.388       .  A
C2632      C3062   1.535   1_554  S
C2632      C2646   1.375       .  A
C2633      C3064   1.414   1_655  A
C2633      C3070   1.367       .  A
C2634      C2640   1.438       .  A
C2636      C3067   1.368       .  A
C2636      N2637   1.343       .  A
C2636      H2649   1.080       .  S
N2637      C2638   1.344       .  A
N2637      C2754   1.417       .  S
C2638      H2639   1.082   1_655  S
C2640      N2641   1.400       .  A
C2640      H2650   1.085       .  S
C2642      H2648   1.078       .  S
C2643      N2644   1.347       .  A
C2643      H2645   1.082       .  S
N2644      C2646   1.341       .  A
N2644      C2848   1.413       .  S
C2646      H2647   1.081       .  S
C2651      C3089   1.526       .  S
C2651      C2654   1.652       .  S
C2651      C2801   1.622       .  S
C2652      C3090   1.519       .  S
C2652      C2657   1.542       .  S
C2652      C2845   1.555       .  S
C2653      C2661   1.367       .  A
C2653      C2656   1.410       .  A
C2654      C2665   1.437       .  A
C2655      C3085   1.521   1_554  S
C2655      C2669   1.376       .  A
C2655      C2658   1.401       .  A
C2656      C3086   1.520       .  S
C2656      C2659   1.377       .  A
C2657      C2663   1.392       .  A
C2658      C2666   1.370       .  A
C2659      N2660   1.345       .  A
C2659      H2672   1.081       .  S
N2660      C2661   1.342       .  A
N2660      C2826   1.414       .  S
C2661      H2662   1.081       .  S
C2663      N2664   1.358       .  A
C2663      H2673   1.077       .  S
C2665      H2671   1.086       .  S
C2666      N2667   1.340       .  A
C2666      H2668   1.081       .  S
N2667      C2669   1.344       .  A
N2667      C2886   1.406       .  S
C2669      H2670   1.082       .  S
C2674      C2676   1.520   1_554  S
C2674      C2677   1.654       .  S
C2674      C2864   1.633       .  S
C2675      C3115   1.524       .  S
C2675      C2680   1.541       .  S
C2675      C2779   1.559       .  S
C2676      C3118   1.374       .  A
C2676      C3113   1.405   1_565  A
C2677      C2688   1.438       .  A
C2678      C2692   1.371       .  A
C2678      C2681   1.409   1_554  A
C2679      C3110   1.400       .  A
C2679      C2682   1.366       .  A
C2680      C2686   1.390       .  A
C2681      C3109   1.522       .  S
C2681      C2689   1.379   1_556  A
C2682      N2683   1.336       .  A
C2682      H2695   1.081       .  S
N2683      C2684   1.344       .  A
N2683      C2760   1.402       .  S
C2684      C3110   1.376       .  A
C2684      H2685   1.082       .  S
C2686      N3121   1.357       .  A
C2686      H2696   1.077       .  S
N2687      C3120   1.357   1_554  A
C2688      H2694   1.085       .  S
C2689      N2690   1.346       .  A
C2689      H2691   1.081   1_554  S
N2690      C2692   1.343       .  A
N2690      C2908   1.418       .  S
C2692      H2693   1.080       .  S
C2697      C2701   1.528   1_655  S
C2697      C2700   1.662       .  S
C2697      C2867   1.638       .  S
C2698      C2703   1.527       .  S
C2698      C2889   1.552       .  S
C2699      C2707   1.376       .  A
C2699      C2702   1.406       .  A
C2700      C2711   1.445       .  A
C2702      C2705   1.370       .  A
C2703      C2709   1.385       .  A
C2704      C2712   1.376   1_545  A
C2705      N2706   1.337       .  A
C2705      H2718   1.080       .  S
N2706      C2707   1.344       .  A
N2706      C2914   1.405       .  S
C2707      H2708   1.082       .  S
C2709      H2719   1.077       .  S
C2711      H2717   1.083       .  S
C2712      N2713   1.344       .  A
C2712      H2714   1.082   1_565  S
N2713      C2715   1.341       .  A
N2713      C2842   1.411       .  S
C2715      H2716   1.080       .  S
C2720      C2723   1.659       .  S
C2720      C2798   1.628       .  S
C2721      C2726   1.540       .  S
C2721      C2757   1.546       .  S
C2722      C2730   1.371       .  A
C2722      C2725   1.413       .  A
C2723      C2734   1.441       .  A
C2724      C2738   1.371       .  A
C2724      C2727   1.406       .  A
C2725      C2728   1.387       .  A
C2726      C2732   1.393       .  A
C2727      C2735   1.367       .  A
C2728      N2729   1.349       .  A
C2728      H2741   1.082       .  S
N2729      C2730   1.341       .  A
N2729      C2782   1.424       .  S
C2730      H2731   1.080       .  S
C2732      N2733   1.355       .  A
C2732      H2742   1.075       .  S
C2734      H2740   1.086       .  S
C2735      N2736   1.335       .  A
C2735      H2737   1.080       .  S
N2736      C2738   1.343       .  A
N2736      C2820   1.399       .  S
C2738      H2739   1.082       .  S
O2743     Cr2761   1.955       .  S
O2743      C2751   1.258       .  A
O2744     Cr2761   1.976       .  S
O2744      C2745   1.258       .  A
C2745      O2746   1.266       .  A
C2745      C3033   1.482       .  S
O2746     Cr2762   2.008       .  S
O2747     Cr2762   1.983       .  S
O2747      C2748   1.260       .  A
C2748      O2749   1.253       .  A
C2748      C3010   1.441       .  S
O2749     Cr2763   1.948       .  S
O2750     Cr2763   2.028       .  S
O2750      C2751   1.274       .  A
C2751      C3023   1.486       .  S
O2752     Cr2761   1.975       .  S
O2752      C2760   1.253       .  A
O2753     Cr2761   1.936       .  S
O2753      C2754   1.253       .  A
C2754      O2755   1.265       .  A
O2755     Cr2762   2.001       .  S
O2756     Cr2762   1.982       .  S
O2756      C2757   1.263       .  A
C2757      O2758   1.270       .  A
O2758     Cr2763   2.043       .  S
O2759     Cr2763   1.936       .  S
O2759      C2760   1.250       .  A
Cr2761     O2764   1.769       .  S
Cr2762     O2764   1.761       .  S
Cr2763     O2764   1.760       .  S
O2765     Cr2783   1.979       .  S
O2765      C2773   1.258       .  A
O2766     Cr2783   1.955       .  S
O2766      C2767   1.257       .  A
C2767      O2768   1.278       .  A
C2767      C3030   1.484       .  S
O2768     Cr2784   2.045       .  S
O2769     Cr2784   1.941       .  S
O2769      C2770   1.246       .  A
C2770      O2771   1.263       .  A
C2770      C3000   1.450       .  S
O2771     Cr2785   1.978       .  S
O2772     Cr2785   2.006       .  S
O2772      C2773   1.263       .  A
C2773      C2993   1.480       .  S
O2774     Cr2783   1.949       .  S
O2774      C2782   1.259       .  A
O2775     Cr2783   1.989       .  S
O2775      C2776   1.257       .  A
C2776      O2777   1.250       .  A
O2777     Cr2784   1.931       .  S
O2778     Cr2784   2.069       .  S
O2778      C2779   1.279       .  A
C2779      O2780   1.261       .  A
O2780     Cr2785   1.976       .  S
O2781     Cr2785   2.005       .  S
O2781      C2782   1.267       .  A
Cr2783     O2786   1.760       .  S
Cr2784     O2786   1.763       .  S
Cr2785     O2786   1.760       .  S
O2787     Cr2805   1.986       .  S
O2787      C2795   1.256       .  A
O2788     Cr2805   1.958       .  S
O2788      C2789   1.250       .  A
C2789      O2790   1.251       .  A
C2789      C2973   1.461       .  S
O2790     Cr2806   1.973       .  S
O2791     Cr2806   1.941       .  S
O2791      C2792   1.244       .  A
C2792      O2793   1.258       .  A
C2792      C3003   1.457       .  S
O2793     Cr2807   1.992       .  S
O2794     Cr2807   1.936       .  S
O2794      C2795   1.241       .  A
C2795      C2980   1.454       .  S
O2796     Cr2805   2.041       .  S
O2796      C2804   1.296       .  A
O2797     Cr2805   2.104       .  S
O2797      C2798   1.290       .  A
C2798      O2799   1.298       .  A
O2799     Cr2806   2.035       .  S
O2800     Cr2806   2.100       .  S
O2800      C2801   1.290       .  A
C2801      O2802   1.292       .  A
O2802     Cr2807   2.027       .  S
O2803     Cr2807   2.107       .  S
O2803      C2804   1.292       .  A
Cr2805     O2808   1.798       .  S
Cr2806     O2808   1.793       .  S
Cr2807     O2808   1.797       .  S
O2809     Cr2827   1.968       .  S
O2809      C2817   1.256       .  A
O2810     Cr2827   1.950       .  S
O2810      C2811   1.258       .  A
C2811      O2812   1.279       .  A
C2811      C2960   1.479       .  S
O2812     Cr2828   2.045       .  S
O2813     Cr2828   1.950       .  S
O2813      C2814   1.251       .  A
C2814      O2815   1.263       .  A
C2814      C2983   1.460       .  S
O2815     Cr2829   1.983       .  S
O2816     Cr2829   2.010       .  S
O2816      C2817   1.266       .  A
C2817      C3020   1.487       .  S
O2818     Cr2827   1.937       .  S
O2818      C2826   1.254       .  A
O2819     Cr2827   1.965       .  S
O2819      C2820   1.251       .  A
C2820      O2821   1.247       .  A
O2821     Cr2828   1.935       .  S
O2822     Cr2828   2.057       .  S
O2822      C2823   1.277       .  A
C2823      O2824   1.259       .  A
O2824     Cr2829   1.969       .  S
O2825     Cr2829   2.003       .  S
O2825      C2826   1.267       .  A
Cr2827     O2830   1.759       .  S
Cr2828     O2830   1.762       .  S
Cr2829     O2830   1.759       .  S
O2831     Cr2849   1.949       .  S
O2831      C2839   1.255       .  A
O2832     Cr2849   1.983       .  S
O2832      C2833   1.260       .  A
C2833      O2834   1.266       .  A
C2833      C2963   1.472       .  S
O2834     Cr2850   1.999       .  S
O2835     Cr2850   1.972       .  S
O2835      C2836   1.259       .  A
C2836      O2837   1.251       .  A
C2836      C2950   1.457       .  S
O2837     Cr2851   1.957       .  S
O2838     Cr2851   2.035       .  S
O2838      C2839   1.275       .  A
C2839      C2943   1.482       .  S
O2840     Cr2849   1.987       .  S
O2840      C2848   1.258       .  A
O2841     Cr2849   1.937       .  S
O2841      C2842   1.253       .  A
C2842      O2843   1.262       .  A
O2843     Cr2850   1.989       .  S
O2844     Cr2850   1.969       .  S
O2844      C2845   1.261       .  A
C2845      O2846   1.278       .  A
O2846     Cr2851   2.066       .  S
O2847     Cr2851   1.946       .  S
O2847      C2848   1.252       .  A
Cr2849     O2852   1.760       .  S
Cr2850     O2852   1.761       .  S
Cr2851     O2852   1.762       .  S
O2853     Cr2871   1.948       .  S
O2853      C2861   1.246       .  A
O2854     Cr2871   1.986       .  S
O2854      C2855   1.257       .  A
C2855      O2856   1.244       .  A
C2855      C2953   1.454       .  S
O2856     Cr2872   1.941       .  S
O2857     Cr2872   1.971       .  S
O2857      C2858   1.256       .  A
C2858      O2859   1.249       .  A
C2858      C3013   1.461       .  S
O2859     Cr2873   1.962       .  S
O2860     Cr2873   1.983       .  S
O2860      C2861   1.255       .  A
C2861      C2930   1.454       .  S
O2862     Cr2871   2.099       .  S
O2862      C2870   1.291       .  A
O2863     Cr2871   2.042       .  S
O2863      C2864   1.295       .  A
C2864      O2865   1.290       .  A
O2865     Cr2872   2.103       .  S
O2866     Cr2872   2.042       .  S
O2866      C2867   1.298       .  A
C2867      O2868   1.289       .  A
O2868     Cr2873   2.103       .  S
O2869     Cr2873   2.033       .  S
O2869      C2870   1.295       .  A
Cr2871     O2874   1.801       .  S
Cr2872     O2874   1.793       .  S
Cr2873     O2874   1.802       .  S
O2875     Cr2893   1.980       .  S
O2875      C2883   1.259       .  A
O2876     Cr2893   1.948       .  S
O2876      C2877   1.256       .  A
C2877      O2878   1.275       .  A
C2877      C2920   1.476       .  S
O2878     Cr2894   2.036       .  S
O2879     Cr2894   1.943       .  S
O2879      C2880   1.251       .  A
C2880      O2881   1.260       .  A
C2880      C2970   1.443       .  S
O2881     Cr2895   1.982       .  S
O2882     Cr2895   2.000       .  S
O2882      C2883   1.263       .  A
C2883      C2940   1.477       .  S
O2884     Cr2893   1.934       .  S
O2884      C2892   1.254       .  A
O2885     Cr2893   1.986       .  S
O2885      C2886   1.257       .  A
C2886      O2887   1.249       .  A
O2887     Cr2894   1.933       .  S
O2888     Cr2894   2.055       .  S
O2888      C2889   1.277       .  A
C2889      O2890   1.260       .  A
O2890     Cr2895   1.973       .  S
O2891     Cr2895   1.995       .  S
O2891      C2892   1.265       .  A
Cr2893     O2896   1.757       .  S
Cr2894     O2896   1.759       .  S
Cr2895     O2896   1.761       .  S
O2897     Cr2915   1.952       .  S
O2897      C2905   1.257       .  A
O2898     Cr2915   1.979       .  S
O2898      C2899   1.259       .  A
C2899      O2900   1.266       .  A
C2899      C2923   1.472       .  S
O2900     Cr2916   2.001       .  S
O2901     Cr2916   1.974       .  S
O2901      C2902   1.260       .  A
C2902      O2903   1.250       .  A
C2902      C2933   1.452       .  S
O2903     Cr2917   1.949       .  S
O2904     Cr2917   2.033       .  S
O2904      C2905   1.275       .  A
C2905      C2990   1.482       .  S
O2906     Cr2915   1.979       .  S
O2906      C2914   1.256       .  A
O2907     Cr2915   1.946       .  S
O2907      C2908   1.255       .  A
C2908      O2909   1.264       .  A
O2909     Cr2916   1.999       .  S
O2910     Cr2916   1.960       .  S
O2910      C2911   1.259       .  A
C2911      O2912   1.274       .  A
O2912     Cr2917   2.057       .  S
O2913     Cr2917   1.934       .  S
O2913      C2914   1.248       .  A
Cr2915     O2918   1.759       .  S
Cr2916     O2918   1.755       .  S
Cr2917     O2918   1.767       .  S
C2919      C2920   1.411       .  A
C2919      C2924   1.396       .  A
C2919      H2926   1.084       .  S
C2920      C2921   1.407       .  A
C2921      C2922   1.396       .  A
C2921     Br2928   1.921       .  S
C2922      C2923   1.409       .  A
C2922      H2927   1.084       .  S
C2923      C2924   1.403       .  A
C2924     Br2925   1.918       .  S
C2929      C2930   1.400       .  A
C2929      C2934   1.386       .  A
C2929      H2936   1.084       .  S
C2930      C2931   1.409       .  A
C2931      C2932   1.385       .  A
C2931     Br2938   1.924       .  S
C2932      C2933   1.401       .  A
C2932      H2937   1.084       .  S
C2933      C2934   1.411       .  A
C2934     Br2935   1.924       .  S
C2939      C2940   1.408       .  A
C2939      C2944   1.395       .  A
C2939      H2946   1.084       .  S
C2940      C2941   1.406       .  A
C2941      C2942   1.399       .  A
C2941     Br2948   1.917       .  S
C2942      C2943   1.413       .  A
C2942      H2947   1.083       .  S
C2943      C2944   1.407       .  A
C2944     Br2945   1.920       .  S
C2949      C2950   1.402       .  A
C2949      C2954   1.385       .  A
C2949      H2956   1.084       .  S
C2950      C2951   1.411       .  A
C2951      C2952   1.389       .  A
C2951     Br2958   1.923       .  S
C2952      C2953   1.400       .  A
C2952      H2957   1.084       .  S
C2953      C2954   1.410       .  A
C2954     Br2955   1.926       .  S
C2959      C2960   1.412       .  A
C2959      C2964   1.400       .  A
C2959      H2966   1.084       .  S
C2960      C2961   1.406       .  A
C2961      C2962   1.398       .  A
C2961     Br2968   1.918       .  S
C2962      C2963   1.408       .  A
C2962      H2967   1.084       .  S
C2963      C2964   1.403       .  A
C2964     Br2965   1.920       .  S
C2969      C2970   1.395       .  A
C2969      C2974   1.382       .  A
C2969      H2976   1.085       .  S
C2970      C2971   1.400       .  A
C2971      C2972   1.387       .  A
C2971     Br2978   1.915       .  S
C2972      C2973   1.407       .  A
C2972      H2977   1.084       .  S
C2973      C2974   1.415       .  A
C2974     Br2975   1.923       .  S
C2979      C2980   1.399       .  A
C2979      C2984   1.388       .  A
C2979      H2986   1.084       .  S
C2980      C2981   1.412       .  A
C2981      C2982   1.385       .  A
C2981     Br2988   1.925       .  S
C2982      C2983   1.400       .  A
C2982      H2987   1.084       .  S
C2983      C2984   1.413       .  A
C2984     Br2985   1.922       .  S
C2989      C2990   1.412       .  A
C2989      C2994   1.399       .  A
C2989      H2996   1.083       .  S
C2990      C2991   1.407       .  A
C2991      C2992   1.397       .  A
C2991     Br2998   1.922       .  S
C2992      C2993   1.410       .  A
C2992      H2997   1.084       .  S
C2993      C2994   1.406       .  A
C2994     Br2995   1.918       .  S
C2999      C3000   1.394       .  A
C2999      C3004   1.380       .  A
C2999      H3006   1.085       .  S
C3000      C3001   1.410       .  A
C3001      C3002   1.389       .  A
C3001     Br3008   1.923       .  S
C3002      C3003   1.401       .  A
C3002      H3007   1.082       .  S
C3003      C3004   1.412       .  A
C3004     Br3005   1.915       .  S
C3009      C3010   1.394       .  A
C3009      C3014   1.391       .  A
C3009      H3016   1.084       .  S
C3010      C3011   1.403       .  A
C3011      C3012   1.382       .  A
C3011     Br3018   1.920       .  S
C3012      C3013   1.402       .  A
C3012      H3017   1.084       .  S
C3013      C3014   1.414       .  A
C3014     Br3015   1.916       .  S
C3019      C3020   1.411       .  A
C3019      C3024   1.390       .  A
C3019      H3026   1.083       .  S
C3020      C3021   1.409       .  A
C3021      C3022   1.403       .  A
C3021     Br3028   1.920       .  S
C3022      C3023   1.414       .  A
C3022      H3027   1.083       .  S
C3023      C3024   1.412       .  A
C3024     Br3025   1.927       .  S
C3029      C3030   1.412       .  A
C3029      C3034   1.399       .  A
C3029      H3036   1.083       .  S
C3030      C3031   1.406       .  A
C3031      C3032   1.399       .  A
C3031     Br3038   1.919       .  S
C3032      C3033   1.412       .  A
C3032      H3037   1.084       .  S
C3033      C3034   1.406       .  A
C3034     Br3035   1.918       .  S
C3039      C3042   1.536       .  S
C3039      C3345   1.550       .  S
C3040      C3045   1.653       .  S
C3040      C3238   1.629       .  S
C3041      C3049   1.372   1_554  A
C3041      C3044   1.399   1_554  A
C3042      C3053   1.388       .  A
C3043      C3057   1.378       .  A
C3043      C3046   1.416       .  A
C3044      C3047   1.374       .  A
C3045      C3051   1.438       .  A
C3046      C3054   1.368       .  A
C3047      N3048   1.344       .  A
C3047      H3060   1.081       .  S
N3048      C3049   1.334       .  A
N3048      C3210   1.403       .  S
C3049      H3050   1.080   1_556  S
C3051      H3061   1.085       .  S
N3052      C3053   1.354       .  A
N3052      N3075   1.454       .  S
C3053      H3059   1.078       .  S
C3054      N3055   1.343       .  A
C3054      H3056   1.080       .  S
N3055      C3057   1.346       .  A
N3055      C3326   1.416       .  S
C3057      H3058   1.082       .  S
C3062      C3065   1.539       .  S
C3062      C3257   1.552       .  S
C3063      C3067   1.537       .  S
C3063      C3069   1.524   1_655  S
C3063      C3068   1.650       .  S
C3063      C3304   1.626       .  S
C3064      C3072   1.379   1_455  A
C3065      C3076   1.390       .  A
C3066      C3080   1.372       .  A
C3068      C3074   1.437       .  A
C3070      N3071   1.338       .  A
C3070      H3083   1.079       .  S
N3071      C3072   1.346       .  A
N3071      C3188   1.414       .  S
C3072      H3073   1.082   1_655  S
C3074      N3075   1.400       .  A
C3074      H3084   1.085       .  S
C3076      H3082   1.078       .  S
C3077      N3078   1.347       .  A
C3077      H3079   1.082       .  S
N3078      C3080   1.343       .  A
N3078      C3282   1.412       .  S
C3080      H3081   1.080       .  S
C3085      C3088   1.652   1_556  S
C3085      C3235   1.623       .  S
C3086      C3091   1.539       .  S
C3086      C3279   1.552       .  S
C3087      C3095   1.366       .  A
C3087      C3090   1.413   1_556  A
C3088      C3099   1.437   1_554  A
C3089      C3103   1.379       .  A
C3089      C3092   1.401       .  A
C3090      C3093   1.377       .  A
C3091      C3097   1.390       .  A
C3092      C3100   1.373       .  A
C3093      N3094   1.345   1_554  A
C3093      H3106   1.082       .  S
N3094      C3095   1.343       .  A
N3094      C3260   1.414       .  S
C3095      H3096   1.080       .  S
C3097      N3098   1.356       .  A
C3097      H3107   1.077       .  S
C3099      H3105   1.086       .  S
C3100      N3101   1.340       .  A
C3100      H3102   1.081       .  S
N3101      C3103   1.347       .  A
N3101      C3320   1.413       .  S
C3103      H3104   1.082       .  S
C3108      C3110   1.521       .  S
C3108      C3111   1.656       .  S
C3108      C3298   1.624       .  S
C3109      C3114   1.539       .  S
C3109      C3213   1.545       .  S
C3111      C3122   1.440       .  A
C3112      C3126   1.370       .  A
C3112      C3115   1.415       .  A
C3113      C3116   1.371   1_545  A
C3114      C3120   1.390       .  A
C3115      C3123   1.381       .  A
C3116      N3117   1.337       .  A
C3116      H3129   1.081       .  S
N3117      C3118   1.342       .  A
N3117      C3194   1.403       .  S
C3118      H3119   1.082       .  S
C3120      H3130   1.077       .  S
C3122      H3128   1.086       .  S
C3123      N3124   1.345       .  A
C3123      H3125   1.082       .  S
N3124      C3126   1.343       .  A
N3124      C3342   1.419       .  S
C3126      H3127   1.080       .  S
C3131      C3135   1.532   1_655  S
C3131      C3134   1.653       .  S
C3131      C3301   1.633       .  S
C3132      C3137   1.538       .  S
C3132      C3323   1.552       .  S
C3133      C3141   1.377       .  A
C3133      C3136   1.404       .  A
C3134      C3145   1.439       .  A
C3136      C3139   1.370       .  A
C3137      C3143   1.389       .  A
C3138      C3146   1.376   1_545  A
C3139      N3140   1.337       .  A
C3139      H3152   1.080       .  S
N3140      C3141   1.342       .  A
N3140      C3348   1.403       .  S
C3141      H3142   1.082       .  S
C3143      H3153   1.076       .  S
C3145      H3151   1.087       .  S
C3146      N3147   1.344       .  A
C3146      H3148   1.082   1_565  S
N3147      C3149   1.339       .  A
N3147      C3276   1.409       .  S
C3149      H3150   1.080       .  S
C3154      C3157   1.656       .  S
C3154      C3232   1.634       .  S
C3155      C3160   1.540       .  S
C3155      C3191   1.554       .  S
C3156      C3164   1.364       .  A
C3156      C3159   1.414       .  A
C3157      C3168   1.439       .  A
C3158      C3172   1.377       .  A
C3158      C3161   1.399       .  A
C3159      C3162   1.375       .  A
C3160      C3166   1.392       .  A
C3161      C3169   1.371       .  A
C3162      N3163   1.345       .  A
C3162      H3175   1.082       .  S
N3163      C3164   1.340       .  A
N3163      C3216   1.411       .  S
C3164      H3165   1.080       .  S
C3166      N3167   1.357   1_565  A
C3166      H3176   1.075       .  S
C3168      H3174   1.086       .  S
C3169      N3170   1.337       .  A
C3169      H3171   1.080       .  S
N3170      C3172   1.346       .  A
N3170      C3254   1.407       .  S
C3172      H3173   1.082       .  S
O3177     Cr3195   1.958       .  S
O3177      C3185   1.260       .  A
O3178     Cr3195   1.970       .  S
O3178      C3179   1.257       .  A
C3179      O3180   1.266       .  A
C3179      C3467   1.490       .  S
O3180     Cr3196   2.015       .  S
O3181     Cr3196   1.965       .  S
O3181      C3182   1.258       .  A
C3182      O3183   1.251       .  A
C3182      C3444   1.447       .  S
O3183     Cr3197   1.950       .  S
O3184     Cr3197   2.022       .  S
O3184      C3185   1.272       .  A
C3185      C3457   1.483       .  S
O3186     Cr3195   1.975       .  S
O3186      C3194   1.254       .  A
O3187     Cr3195   1.947       .  S
O3187      C3188   1.258       .  A
C3188      O3189   1.261       .  A
O3189     Cr3196   1.986       .  S
O3190     Cr3196   1.980       .  S
O3190      C3191   1.264       .  A
C3191      O3192   1.274       .  A
O3192     Cr3197   2.052       .  S
O3193     Cr3197   1.937       .  S
O3193      C3194   1.250       .  A
Cr3195     O3198   1.759       .  S
Cr3196     O3198   1.759       .  S
Cr3197     O3198   1.761       .  S
O3199     Cr3217   1.971       .  S
O3199      C3207   1.260       .  A
O3200     Cr3217   1.957       .  S
O3200      C3201   1.258       .  A
C3201      O3202   1.272       .  A
C3201      C3464   1.483       .  S
O3202     Cr3218   2.020       .  S
O3203     Cr3218   1.948       .  S
O3203      C3204   1.250       .  A
C3204      O3205   1.260       .  A
C3204      C3434   1.453       .  S
O3205     Cr3219   1.965       .  S
O3206     Cr3219   2.010       .  S
O3206      C3207   1.266       .  A
C3207      C3427   1.488       .  S
O3208     Cr3217   1.939       .  S
O3208      C3216   1.254       .  A
O3209     Cr3217   1.970       .  S
O3209      C3210   1.254       .  A
C3210      O3211   1.252       .  A
O3211     Cr3218   1.944       .  S
O3212     Cr3218   2.050       .  S
O3212      C3213   1.272       .  A
C3213      O3214   1.262       .  A
O3214     Cr3219   1.972       .  S
O3215     Cr3219   1.989       .  S
O3215      C3216   1.262       .  A
Cr3217     O3220   1.756       .  S
Cr3218     O3220   1.759       .  S
Cr3219     O3220   1.757       .  S
O3221     Cr3239   1.984       .  S
O3221      C3229   1.256       .  A
O3222     Cr3239   1.962       .  S
O3222      C3223   1.251       .  A
C3223      O3224   1.256       .  A
C3223      C3407   1.470       .  S
O3224     Cr3240   1.991       .  S
O3225     Cr3240   1.943       .  S
O3225      C3226   1.247       .  A
C3226      O3227   1.254       .  A
C3226      C3437   1.444       .  S
O3227     Cr3241   1.980       .  S
O3228     Cr3241   1.942       .  S
O3228      C3229   1.245       .  A
C3229      C3414   1.453       .  S
O3230     Cr3239   2.045       .  S
O3230      C3238   1.297       .  A
O3231     Cr3239   2.105       .  S
O3231      C3232   1.290       .  A
C3232      O3233   1.295       .  A
O3233     Cr3240   2.038       .  S
O3234     Cr3240   2.098       .  S
O3234      C3235   1.289       .  A
C3235      O3236   1.294       .  A
O3236     Cr3241   2.031       .  S
O3237     Cr3241   2.093       .  S
O3237      C3238   1.287       .  A
Cr3239     O3242   1.800       .  S
Cr3240     O3242   1.798       .  S
Cr3241     O3242   1.805       .  S
O3243     Cr3261   1.972       .  S
O3243      C3251   1.257       .  A
O3244     Cr3261   1.952       .  S
O3244      C3245   1.259       .  A
C3245      O3246   1.282       .  A
C3245      C3394   1.485       .  S
O3246     Cr3262   2.054       .  S
O3247     Cr3262   1.958       .  S
O3247      C3248   1.252       .  A
C3248      O3249   1.259       .  A
C3248      C3417   1.458       .  S
O3249     Cr3263   1.968       .  S
O3250     Cr3263   2.000       .  S
O3250      C3251   1.262       .  A
C3251      C3454   1.477       .  S
O3252     Cr3261   1.936       .  S
O3252      C3260   1.254       .  A
O3253     Cr3261   1.973       .  S
O3253      C3254   1.252       .  A
C3254      O3255   1.251       .  A
O3255     Cr3262   1.946       .  S
O3256     Cr3262   2.070       .  S
O3256      C3257   1.280       .  A
C3257      O3258   1.257       .  A
O3258     Cr3263   1.959       .  S
O3259     Cr3263   2.001       .  S
O3259      C3260   1.266       .  A
Cr3261     O3264   1.760       .  S
Cr3262     O3264   1.759       .  S
Cr3263     O3264   1.762       .  S
O3265     Cr3283   1.942       .  S
O3265      C3273   1.254       .  A
O3266     Cr3283   1.984       .  S
O3266      C3267   1.260       .  A
C3267      O3268   1.265       .  A
C3267      C3397   1.476       .  S
O3268     Cr3284   1.999       .  S
O3269     Cr3284   1.967       .  S
O3269      C3270   1.257       .  A
C3270      O3271   1.254       .  A
C3270      C3384   1.442       .  S
O3271     Cr3285   1.956       .  S
O3272     Cr3285   2.042       .  S
O3272      C3273   1.277       .  A
C3273      C3377   1.477       .  S
O3274     Cr3283   1.987       .  S
O3274      C3282   1.257       .  A
O3275     Cr3283   1.930       .  S
O3275      C3276   1.253       .  A
C3276      O3277   1.261       .  A
O3277     Cr3284   1.987       .  S
O3278     Cr3284   1.976       .  S
O3278      C3279   1.263       .  A
C3279      O3280   1.276       .  A
O3280     Cr3285   2.060       .  S
O3281     Cr3285   1.947       .  S
O3281      C3282   1.251       .  A
Cr3283     O3286   1.762       .  S
Cr3284     O3286   1.763       .  S
Cr3285     O3286   1.763       .  S
O3287     Cr3305   1.942       .  S
O3287      C3295   1.243       .  A
O3288     Cr3305   1.977       .  S
O3288      C3289   1.255       .  A
C3289      O3290   1.247       .  A
C3289      C3387   1.464       .  S
O3290     Cr3306   1.959       .  S
O3291     Cr3306   1.985       .  S
O3291      C3292   1.257       .  A
C3292      O3293   1.244       .  A
C3292      C3447   1.458       .  S
O3293     Cr3307   1.944       .  S
O3294     Cr3307   1.995       .  S
O3294      C3295   1.261       .  A
C3295      C3364   1.466       .  S
O3296     Cr3305   2.102       .  S
O3296      C3304   1.288       .  A
O3297     Cr3305   2.027       .  S
O3297      C3298   1.294       .  A
C3298      O3299   1.292       .  A
O3299     Cr3306   2.106       .  S
O3300     Cr3306   2.035       .  S
O3300      C3301   1.295       .  A
C3301      O3302   1.292       .  A
O3302     Cr3307   2.108       .  S
O3303     Cr3307   2.035       .  S
O3303      C3304   1.294       .  A
Cr3305     O3308   1.795       .  S
Cr3306     O3308   1.795       .  S
Cr3307     O3308   1.797       .  S
O3309     Cr3327   1.982       .  S
O3309      C3317   1.260       .  A
O3310     Cr3327   1.946       .  S
O3310      C3311   1.255       .  A
C3311      O3312   1.278       .  A
C3311      C3354   1.484       .  S
O3312     Cr3328   2.044       .  S
O3313     Cr3328   1.967       .  S
O3313      C3314   1.256       .  A
C3314      O3315   1.257       .  A
C3314      C3404   1.463       .  S
O3315     Cr3329   1.978       .  S
O3316     Cr3329   1.990       .  S
O3316      C3317   1.263       .  A
C3317      C3374   1.471       .  S
O3318     Cr3327   1.941       .  S
O3318      C3326   1.253       .  A
O3319     Cr3327   1.982       .  S
O3319      C3320   1.256       .  A
C3320      O3321   1.253       .  A
O3321     Cr3328   1.948       .  S
O3322     Cr3328   2.068       .  S
O3322      C3323   1.280       .  A
C3323      O3324   1.260       .  A
O3324     Cr3329   1.962       .  S
O3325     Cr3329   1.998       .  S
O3325      C3326   1.263       .  A
Cr3327     O3330   1.766       .  S
Cr3328     O3330   1.762       .  S
Cr3329     O3330   1.763       .  S
O3331     Cr3349   1.966       .  S
O3331      C3339   1.258       .  A
O3332     Cr3349   1.979       .  S
O3332      C3333   1.260       .  A
C3333      O3334   1.263       .  A
C3333      C3357   1.474       .  S
O3334     Cr3350   1.993       .  S
O3335     Cr3350   1.997       .  S
O3335      C3336   1.264       .  A
C3336      O3337   1.248       .  A
C3336      C3367   1.450       .  S
O3337     Cr3351   1.941       .  S
O3338     Cr3351   2.019       .  S
O3338      C3339   1.272       .  A
C3339      C3424   1.485       .  S
O3340     Cr3349   1.983       .  S
O3340      C3348   1.257       .  A
O3341     Cr3349   1.940       .  S
O3341      C3342   1.253       .  A
C3342      O3343   1.266       .  A
O3343     Cr3350   2.003       .  S
O3344     Cr3350   1.976       .  S
O3344      C3345   1.261       .  A
C3345      O3346   1.275       .  A
O3346     Cr3351   2.057       .  S
O3347     Cr3351   1.931       .  S
O3347      C3348   1.250       .  A
Cr3349     O3352   1.769       .  S
Cr3350     O3352   1.761       .  S
Cr3351     O3352   1.753       .  S
C3353      C3354   1.414       .  A
C3353      C3358   1.399       .  A
C3353      H3360   1.083       .  S
C3354      C3355   1.406       .  A
C3355      C3356   1.397       .  A
C3355     Br3362   1.919       .  S
C3356      C3357   1.408       .  A
C3356      H3361   1.084       .  S
C3357      C3358   1.405       .  A
C3358     Br3359   1.921       .  S
C3363      C3364   1.401       .  A
C3363      C3368   1.386       .  A
C3363      H3370   1.083       .  S
C3364      C3365   1.420       .  A
C3365      C3366   1.390       .  A
C3365     Br3372   1.925       .  S
C3366      C3367   1.394       .  A
C3366      H3371   1.084       .  S
C3367      C3368   1.408       .  A
C3368     Br3369   1.923       .  S
C3373      C3374   1.409       .  A
C3373      C3378   1.397       .  A
C3373      H3380   1.084       .  S
C3374      C3375   1.404       .  A
C3375      C3376   1.396       .  A
C3375     Br3382   1.920       .  S
C3376      C3377   1.411       .  A
C3376      H3381   1.083       .  S
C3377      C3378   1.404       .  A
C3378     Br3379   1.919       .  S
C3383      C3384   1.398       .  A
C3383      C3388   1.391       .  A
C3383      H3390   1.084       .  S
C3384      C3385   1.401       .  A
C3385      C3386   1.381       .  A
C3385     Br3392   1.923       .  S
C3386      C3387   1.404       .  A
C3386      H3391   1.083       .  S
C3387      C3388   1.415       .  A
C3388     Br3389   1.923       .  S
C3393      C3394   1.413       .  A
C3393      C3398   1.401       .  A
C3393      H3400   1.083       .  S
C3394      C3395   1.406       .  A
C3395      C3396   1.399       .  A
C3395     Br3402   1.917       .  S
C3396      C3397   1.408       .  A
C3396      H3401   1.084       .  S
C3397      C3398   1.404       .  A
C3398     Br3399   1.920       .  S
C3403      C3404   1.399       .  A
C3403      C3408   1.390       .  A
C3403      H3410   1.084       .  S
C3404      C3405   1.409       .  A
C3405      C3406   1.392       .  A
C3405     Br3412   1.921       .  S
C3406      C3407   1.404       .  A
C3406      H3411   1.084       .  S
C3407      C3408   1.411       .  A
C3408     Br3409   1.914       .  S
C3413      C3414   1.400       .  A
C3413      C3418   1.388       .  A
C3413      H3420   1.084       .  S
C3414      C3415   1.409       .  A
C3415      C3416   1.384       .  A
C3415     Br3422   1.925       .  S
C3416      C3417   1.402       .  A
C3416      H3421   1.084       .  S
C3417      C3418   1.411       .  A
C3418     Br3419   1.922       .  S
C3423      C3424   1.414       .  A
C3423      C3428   1.409       .  A
C3423      H3430   1.083       .  S
C3424      C3425   1.411       .  A
C3425      C3426   1.387       .  A
C3425     Br3432   1.927       .  S
C3426      C3427   1.407       .  A
C3426      H3431   1.083       .  S
C3427      C3428   1.412       .  A
C3428     Br3429   1.920       .  S
C3433      C3434   1.402       .  A
C3433      C3438   1.379       .  A
C3433      H3440   1.084       .  S
C3434      C3435   1.414       .  A
C3435      C3436   1.389       .  A
C3435     Br3442   1.926       .  S
C3436      C3437   1.399       .  A
C3436      H3441   1.084       .  S
C3437      C3438   1.402       .  A
C3438     Br3439   1.921       .  S
C3443      C3444   1.399       .  A
C3443      C3448   1.387       .  A
C3443      H3450   1.085       .  S
C3444      C3445   1.407       .  A
C3445      C3446   1.383       .  A
C3445     Br3452   1.923       .  S
C3446      C3447   1.401       .  A
C3446      H3451   1.083       .  S
C3447      C3448   1.414       .  A
C3448     Br3449   1.925       .  S
C3453      C3454   1.407       .  A
C3453      C3458   1.388       .  A
C3453      H3460   1.084       .  S
C3454      C3455   1.407       .  A
C3455      C3456   1.401       .  A
C3455     Br3462   1.920       .  S
C3456      C3457   1.414       .  A
C3456      H3461   1.083       .  S
C3457      C3458   1.412       .  A
C3458     Br3459   1.926       .  S
C3463      C3464   1.413       .  A
C3463      C3468   1.405       .  A
C3463      H3470   1.083       .  S
C3464      C3465   1.411       .  A
C3465      C3466   1.388       .  A
C3465     Br3472   1.928       .  S
C3466      C3467   1.411       .  A
C3466      H3471   1.083       .  S
C3467      C3468   1.410       .  A
C3468     Br3469   1.919       .  S
