geometry optimzed in LAMMPS
_audit_creation_date              2020-12-01 
_audit_creation_method            'lammps2cif' 
_symmetry_space_group_name_H-M    'P1' 
_symmetry_Int_Tables_number       1 
_symmetry_cell_setting            triclinic 
loop_ 
_symmetry_equiv_pos_as_xyz 
  x,y,z 
_cell_length_a                    36.79240159 
_cell_length_b                    30.065347859930274 
_cell_length_c                    31.59376776035965 
_cell_angle_alpha                 85.62192282427036 
_cell_angle_beta                  89.16162063059306 
_cell_angle_gamma                 93.91058203551268 
loop_ 
_atom_site_label 
_atom_site_type_symbol 
_atom_site_fract_x 
_atom_site_fract_y 
_atom_site_fract_z 
_atom_site_charge 
C1          C  0.05965695  0.27194730  0.16883176     0.79900
N2          N  0.06392457  0.31651301  0.15695470    -0.78400
C3          C  0.09198181  0.33337658  0.13112987     0.82300
N4          N  0.11583780  0.30580970  0.11656889    -0.78400
C5          C  0.11232713  0.26132003  0.12751536     0.82400
N6          N  0.08448694  0.24398605  0.15463267    -0.80100
C7          C  0.14788263  0.97446460  0.14905982     0.79900
N8          N  0.15601826  0.47724838  0.12137942    -0.78400
C9          C  0.12293443  0.46492543  0.10641109     0.82300
N10         N  0.10302140  0.49587436  0.08626102    -0.78400
C11         C  0.08715645  0.97867720  0.12509546     0.82400
N12         N  0.11080432  0.97290867  0.15813191    -0.80100
O13         O  0.17492481  0.05070710  0.33366990    -0.81300
O14         O  0.32466708  0.49287222  0.24551090    -0.65900
O15         O  0.24141531  0.01907502  0.29836277    -1.12500
C16         C  0.17631040  0.97071268  0.18213691     1.05600
O17         O  0.32984074  0.49561206  0.17541679    -0.79100
O18         O  0.27554117  0.00424865  0.18744333    -0.66700
Ni19       Ni  0.22415398  0.03560535  0.35246726     1.34900
C20         C  0.25963872  0.04009625  0.19036418     0.84400
O21         O  0.30403572  0.98480866  0.33711090    -0.79700
O22         O  0.27168016  0.02699144  0.37727252    -0.90000
C23         C  0.33915992  0.48059912  0.21244241     0.83900
O24         O  0.20655355  0.97658211  0.37335287    -0.68200
O25         O  0.23176267  0.51238937  0.13207292    -0.87500
C26         C  0.24130644  0.50333197  0.31617755     0.84800
C27         C  0.30086181  0.00826647  0.36855447     1.06300
H28         H  0.24731126  0.49857789  0.22239027     0.38100
O29         O  0.26228760  0.52405153  0.21004782    -1.10100
O30         O  0.23082868  0.04063187  0.21329369    -0.66800
Ni31       Ni  0.20568530  0.00101616  0.25835472     1.26300
O32         O  0.27112286  0.50279393  0.29503541    -0.67000
O33         O  0.16958407  0.98083351  0.21952309    -0.79300
C34         C  0.16486821  0.06427714  0.29652572     0.84200
O35         O  0.17856617  0.05072324  0.26361924    -0.66500
Ni36       Ni  0.27996478  0.50716173  0.15636120     1.27400
Ni37       Ni  0.26912131  0.96701313  0.29622564     1.26100
H38         H  0.25641977  0.04443464  0.28582482     0.38700
C39         C  0.38619871  0.28432262  0.37740063     0.79900
N40         N  0.38254506  0.24019821  0.38924709    -0.78400
C41         C  0.40601049  0.21217991  0.37513838     0.82300
N42         N  0.43399329  0.22805792  0.34889916    -0.78400
C43         C  0.43858964  0.27234973  0.33614843     0.82400
N44         N  0.41402030  0.30101196  0.34985912    -0.80100
C45         C  0.38946034  0.00833105  0.42644800     0.79900
N46         N  0.39862371  0.05283061  0.42141919    -0.78400
C47         C  0.37639035  0.08134297  0.40238188     0.82300
N48         N  0.34421732  0.06579474  0.38766224    -0.78400
C49         C  0.33411982  0.02145175  0.39145695     0.82400
N50         N  0.38966490  0.56615216  0.35303257    -0.80100
C51         C  0.27335018  0.08238605  0.16491873     0.79900
N52         N  0.30984380  0.09246487  0.15590466    -0.78400
C53         C  0.32137714  0.13200862  0.13352254     0.82300
N54         N  0.29624055  0.16066504  0.12012455    -0.78400
C55         C  0.26000217  0.15073793  0.12774319     0.82400
N56         N  0.24870800  0.11186619  0.15057107    -0.80100
C57         C  0.48005770  0.22846270  0.10492221     0.79900
N58         N  0.44438406  0.21510567  0.11476140    -0.78400
C59         C  0.42813321  0.17753808  0.09958415     0.82300
N60         N  0.44770804  0.15376282  0.07365961    -0.78400
C61         C  0.48323689  0.16584016  0.06234816     0.82400
N62         N  0.95587814  0.10320836  0.16835223    -0.80100
O63         O  0.04615294  0.16567297  0.33947176    -0.81300
O64         O  0.47786622  0.39545042  0.22533680    -0.65900
O65         O  0.52385127  0.28703560  0.23099251    -1.12500
C66         C  0.02818190  0.25635647  0.19765417     1.05600
O67         O  0.45545954  0.37517957  0.16526145    -0.79100
O68         O  0.48186534  0.30614154  0.12071771    -0.66700
Ni69       Ni  0.00222143  0.17426820  0.37420800     1.34900
C70         C  0.49715635  0.26916943  0.12477438     0.84400
O71         O  0.47002461  0.32195041  0.28175836    -0.79700
O72         O  0.49680148  0.26061368  0.30850142    -0.90000
C73         C  0.45288810  0.39647822  0.19895580     0.83900
O74         O  0.02009209  0.23545861  0.38333224    -0.68200
O75         O  0.00107985  0.28125997  0.19700676    -0.87500
C76         C  0.00395640  0.27188504  0.38014958     0.84800
C77         C  0.47037674  0.28657901  0.30733076     1.06300
H78         H  0.99303941  0.27714900  0.28173903     0.38100
O79         O  0.97566429  0.25339956  0.27479228    -1.10100
O80         O  0.96722588  0.16458484  0.24055667    -0.66800
Ni81       Ni  0.00051033  0.20035244  0.27407091     1.26300
O82         O  0.53351519  0.37588166  0.26521422    -0.67000
O83         O  0.02950558  0.22075813  0.22280320    -0.79300
C84         C  0.04875379  0.14486989  0.30551062     0.84200
O85         O  0.02400562  0.14667853  0.27880323    -0.66500
Ni86       Ni  0.49985879  0.36696188  0.13117388     1.27400
Ni87       Ni  0.50012352  0.34104610  0.23103022     1.26100
H88         H  0.50611002  0.26377128  0.22369772     0.38700
C89         C  0.22693020  0.46154106  0.34118054     0.79900
N90         N  0.25136471  0.43279697  0.35705105    -0.78400
C91         C  0.23975716  0.39452822  0.38026903     0.82300
N92         N  0.20348737  0.38419003  0.38662741    -0.78400
C93         C  0.17850846  0.41209756  0.37154634     0.82400
N94         N  0.19025369  0.45130777  0.34878815    -0.80100
C95         C  0.01796119  0.37545573  0.44257956     0.79900
N96         N  0.05332247  0.38759972  0.43082043    -0.78400
C97         C  0.07260905  0.36414357  0.40444711     0.82300
N98         N  0.05638129  0.32654815  0.38936875    -0.78400
C99         C  0.02087202  0.31290542  0.39973517     0.82400
N100        N  0.54438527  0.43619709  0.33843370    -0.80100
O101        O  0.07944480  0.11081144  0.38906616    -0.81300
O102        O  0.41685650  0.39660845  0.05794096    -0.65900
O103        O  0.47528955  0.00078977  0.50892340    -1.12500
C104        C  0.04683312  0.98001916  0.12687349     1.05600
O105        O  0.42000611  0.43109194  0.11841670    -0.79100
O106        O  0.49342110  0.09133533  0.05879694    -0.66700
Ni107      Ni  0.02771225  0.09983013  0.37491707     1.34900
C108        C  0.50335963  0.12985856  0.04238478     0.84400
O109        O  0.41245743  0.95851721  0.48203213    -0.79700
O110        O  0.45021628  0.99458856  0.43079559    -0.90000
C111        C  0.40549763  0.40069538  0.09592520     0.83900
O112        O  0.01031298  0.45031051  0.44923093    -0.68200
O113        O  0.05937944  0.57125255  0.07590059    -0.87500
C114        C  0.99826296  0.41152950  0.46310383     0.84800
C115        C  0.41831276  0.98218583  0.44635548     1.06300
H116        H  0.05042397  0.51821572  0.00136626     0.38100
O117        O  0.03386651  0.54184306  0.00226861    -1.10100
O118        O  0.97083033  0.03746343  0.08049553    -0.66800
Ni119      Ni  0.00598484  0.00508274  0.05375756     1.26300
O120        O  0.53138489  0.50163985  0.42760805    -0.67000
O121        O  0.03571450  0.01095395  0.10222185    -0.79300
C122        C  0.09254266  0.14153031  0.41219989     0.84200
O123        O  0.08061446  0.14410971  0.45031832    -0.66500
Ni124      Ni  0.47237904  0.44203560  0.12956683     1.27400
Ni125      Ni  0.44730743  0.94840714  0.52757484     1.26100
H126        H  0.45922237  0.02489585  0.50932332     0.38700
C127        C  0.08414140  0.13434216  0.28814784     0.79900
N128        N  0.09723380  0.16430166  0.25674346    -0.78400
C129        C  0.13275554  0.16793386  0.24594776     0.82300
N130        N  0.15332947  0.13415827  0.25903676    -0.78400
C131        C  0.14033861  0.10084826  0.28794520     0.82400
N132        N  0.10574767  0.10191843  0.30468163    -0.80100
C133        C  0.12241342  0.17386616  0.39369312     0.79900
N134        N  0.12091698  0.18932604  0.35200540    -0.78400
C135        C  0.14837300  0.21683172  0.33308737     0.82300
N136        N  0.17827007  0.22626075  0.35492169    -0.78400
C137        C  0.18084019  0.21127365  0.39600655     0.82400
N138        N  0.15251166  0.18592228  0.41636487    -0.80100
O139        O  0.24226233  0.23262929  0.39218406    -0.81300
O140        O  0.28769643  0.29931347  0.05740901    -0.65900
O141        O  0.28610055  0.27755749  0.44623272    -1.12500
C142        C  0.14157338  0.23526556  0.11180619     1.05600
O143        O  0.25399178  0.31465594  0.11342692    -0.79100
O144        O  0.24316128  0.22449550  0.12469316    -0.66700
Ni145      Ni  0.28508661  0.27247313  0.38628085     1.34900
C146        C  0.23451884  0.18506943  0.11451292     0.84400
O147        O  0.35639504  0.31782582  0.43208524    -0.79700
O148        O  0.32805548  0.31195656  0.37256073    -0.90000
C149        C  0.28322043  0.31845493  0.09106763     0.83900
O150        O  0.25565428  0.32134910  0.38259886    -0.68200
O151        O  0.17026342  0.23265812  0.13288835    -0.87500
C152        C  0.26481688  0.36030237  0.39326110     0.84800
C153        C  0.35704913  0.31011893  0.39325978     1.06300
H154        H  0.20335449  0.29277215  0.04507989     0.38100
O155        O  0.21284822  0.26694641  0.05977314    -1.10100
O156        O  0.20605335  0.17584492  0.09239692    -0.66800
Ni157      Ni  0.18686139  0.21351811  0.04430743     1.26300
O158        O  0.29345741  0.36906332  0.41511296    -0.67000
O159        O  0.14254864  0.22683484  0.07316308    -0.79300
C160        C  0.21380531  0.22790733  0.41600457     0.84200
O161        O  0.21116434  0.24454124  0.45127420    -0.66500
Ni162      Ni  0.21260207  0.27288152  0.11960871     1.27400
Ni163      Ni  0.31273872  0.33050225  0.46216147     1.26100
H164        H  0.29597354  0.25125844  0.46020965     0.38700
C165        C  0.41759569  0.40654228  0.21668147     0.79900
N166        N  0.39724184  0.44126393  0.20262586    -0.78400
C167        C  0.36316957  0.44344092  0.22036523     0.82300
N168        N  0.34960623  0.40985193  0.24858983    -0.78400
C169        C  0.36889867  0.37435782  0.25985770     0.82400
N170        N  0.40380477  0.37537467  0.24666125    -0.80100
C171        C  0.37443150  0.37068488  0.11469639     0.79900
N172        N  0.34427771  0.35985280  0.09174924    -0.78400
C173        C  0.31507507  0.33623225  0.11194416     0.82300
N174        N  0.31678483  0.32144065  0.15317117    -0.78400
C175        C  0.34689120  0.32917358  0.17512049     0.82400
N176        N  0.37534774  0.35509506  0.15635240    -0.80100
C177        C  0.35033049  0.33242531  0.25430632    -0.13600
C178        C  0.34531570  0.31837759  0.22016453    -0.15200
C179        C  0.15035993  0.22601708  0.28783601    -0.13600
C180        C  0.14827584  0.21092198  0.25375006    -0.15200
C181        C  0.13988190  0.39816786  0.37979358    -0.13600
C182        C  0.10924397  0.38197874  0.39003289    -0.15200
C183        C  0.36007642  0.14523209  0.12389855    -0.13600
C184        C  0.39104331  0.16034451  0.11342046    -0.15200
C185        C  0.38874649  0.12708650  0.39396149    -0.13600
C186        C  0.39881010  0.16552014  0.38546423    -0.15200
C187        C  0.09859141  0.38063369  0.12163391    -0.13600
C188        C  0.10834981  0.41951740  0.11399139    -0.15200
C189        C  0.10215098  0.36033086  0.56618243     0.79900
N190        N  0.10154877  0.39987588  0.54227429    -0.78400
C191        C  0.12968572  0.41445672  0.51516142     0.82300
N192        N  0.15797760  0.38891593  0.51172837    -0.78400
C193        C  0.15924386  0.34970711  0.53528192     0.82400
N194        N  0.13190234  0.33573281  0.56367360    -0.80100
C195        C  0.16548579  0.01735364  0.61145272     0.79900
N196        N  0.16058395  0.48727438  0.60597487    -0.78400
C197        C  0.13709765  0.49853370  0.57500717     0.82300
N198        N  0.10156007  0.49751486  0.58461626    -0.78400
C199        C  0.11155343  0.03314283  0.57463570     0.82400
N200        N  0.14271246  0.04822259  0.59408224    -0.80100
O201        O  0.20040391  0.11331633  0.78682714    -0.81300
O202        O  0.29795897  0.41666023  0.78770894    -0.65900
O203        O  0.26482931  0.08667363  0.75006026    -1.12500
C204        C  0.19795562  0.02918347  0.63643627     1.05600
O205        O  0.29929081  0.42241096  0.71694993    -0.79100
O206        O  0.29226458  0.06403611  0.63256187    -0.66700
Ni207      Ni  0.24722862  0.09442044  0.80641921     1.34900
C208        C  0.27813489  0.10127905  0.63609445     0.84400
O209        O  0.33051033  0.05721094  0.78362961    -0.79700
O210        O  0.29310338  0.07886387  0.83291224    -0.90000
C211        C  0.31235697  0.40898793  0.75261347     0.83900
O212        O  0.22530985  0.03450947  0.81925734    -0.68200
O213        O  0.20850696  0.46049382  0.66814657    -0.87500
C214        C  0.22210079  0.43987335  0.86802430     0.84800
C215        C  0.32465969  0.06834955  0.82082632     1.06300
H216        H  0.22073668  0.42420783  0.76284758     0.38100
O217        O  0.23517757  0.45095361  0.75214851    -1.10100
O218        O  0.25393600  0.10683640  0.66396457    -0.66800
Ni219      Ni  0.22903198  0.06948974  0.70940250     1.26300
O220        O  0.24456380  0.43216790  0.83889831    -0.67000
O221        O  0.19381473  0.05046870  0.66925231    -0.79300
C222        C  0.18708177  0.12765894  0.75158894     0.84200
O223        O  0.20086587  0.12003343  0.71611869    -0.66500
Ni224      Ni  0.25335456  0.44277857  0.69607974     1.27400
Ni225      Ni  0.29367802  0.03663572  0.74583154     1.26100
H226        H  0.27881082  0.11359207  0.73933613     0.38700
C227        C  0.34109451  0.19390081  0.97347961     0.79900
N228        N  0.34116861  0.15360911  0.99552285    -0.78400
C229        C  0.36922221  0.12761934  0.99204219     0.82300
N230        N  0.39823218  0.14272972  0.96657333    -0.78400
C231        C  0.39869537  0.18282886  0.94365024     0.82400
N232        N  0.36926532  0.20814601  0.94613724    -0.80100
C233        C  0.41482548  0.06255615  0.87694299     0.79900
N234        N  0.40127111  0.05284462  0.91672591    -0.78400
C235        C  0.36554987  0.04895531  0.92586925     0.82300
N236        N  0.34180090  0.05662238  0.89441305    -0.78400
C237        C  0.35369904  0.06483239  0.85331780     0.82400
N238        N  0.35653989  0.48975164  0.90879472    -0.80100
C239        C  0.29134989  0.13957454  0.60640876     0.79900
N240        N  0.32505240  0.13839283  0.58922417    -0.78400
C241        C  0.33933089  0.17199941  0.56200400     0.82300
N242        N  0.32014582  0.20752122  0.55183695    -0.78400
C243        C  0.28595425  0.20921308  0.56755349     0.82400
N244        N  0.27118795  0.17540860  0.59555373    -0.80100
C245        C  0.44407127  0.14558732  0.67335703     0.79900
N246        N  0.42989672  0.16674520  0.63857050    -0.78400
C247        C  0.42655850  0.14734845  0.60182585     0.82300
N248        N  0.43516538  0.10511327  0.59976586    -0.78400
C249        C  0.44923167  0.08172607  0.63313737     0.82400
N250        N  0.99887355  0.20387321  0.58272159    -0.80100
O251        O  0.09615602  0.27779285  0.75522321    -0.81300
O252        O  0.41573656  0.28612746  0.81991449    -0.65900
O253        O  0.47306096  0.18506358  0.82793607    -1.12500
C254        C  0.07462476  0.34943495  0.60057039     1.05600
O255        O  0.40558426  0.26382631  0.75696849    -0.79100
O256        O  0.44330567  0.21597043  0.70117433    -0.66700
Ni257      Ni  0.04922566  0.27052257  0.78411283     1.34900
C258        C  0.45163006  0.17576872  0.70876856     0.84400
O259        O  0.41749256  0.21618155  0.87659613    -0.79700
O260        O  0.45806378  0.17648715  0.91352377    -0.90000
C261        C  0.39988063  0.29116673  0.78486823     0.83900
O262        O  0.05728299  0.32602170  0.80996708    -0.68200
O263        O  0.04268058  0.36404906  0.59629829    -0.87500
C264        C  0.04964123  0.36645844  0.80198518     0.84800
C265        C  0.42676212  0.19308987  0.90962383     1.06300
H266        H  0.04509910  0.38371786  0.68528369     0.38100
O267        O  0.02883952  0.35779134  0.68204606    -1.10100
O268        O  0.02685206  0.26732014  0.64938735    -0.66800
Ni269      Ni  0.05705743  0.30682165  0.68374478     1.26300
O270        O  0.47606503  0.27473422  0.86115885    -0.67000
O271        O  0.08474718  0.32751890  0.63397194    -0.79300
C272        C  0.10221412  0.25108469  0.72683008     0.84200
O273        O  0.08721193  0.25729469  0.69128639    -0.66500
Ni274      Ni  0.45188921  0.27154174  0.72664121     1.27400
Ni275      Ni  0.44529692  0.23627170  0.82681117     1.26100
H276        H  0.45621693  0.15960486  0.82417443     0.38700
C277        C  0.20893139  0.40304808  0.89940085     0.79900
N278        N  0.22891702  0.36727122  0.91087308    -0.78400
C279        C  0.21487916  0.33522780  0.94103579     0.82300
N280        N  0.18139187  0.33831032  0.95810693    -0.78400
C281        C  0.16217556  0.37354679  0.94711818     0.82400
N282        N  0.17581685  0.40567727  0.91783586    -0.80100
C283        C  0.05222024  0.46071886  0.87725681     0.79900
N284        N  0.06580516  0.43721184  0.91079798    -0.78400
C285        C  0.07387152  0.39484650  0.90922989     0.82300
N286        N  0.07057762  0.37525700  0.87258246    -0.78400
C287        C  0.05687656  0.39654150  0.83751093     0.82400
N288        N  0.50207032  0.33594357  0.92948178    -0.80100
O289        O  0.04072909  0.02514543  0.97509825    -0.81300
O290        O  0.47571851  0.47694434  0.47871137    -0.65900
O291        O  0.51809449  0.09234937  0.93258372    -1.12500
C292        C  0.08207911  0.06052425  0.55844241     1.05600
O293        O  0.46660327  0.50492784  0.54074601    -0.79100
O294        O  0.46405446  0.00297236  0.64645868    -0.66700
Ni295      Ni  0.99405627  0.00733639  0.95289681     1.34900
C296        C  0.46251586  0.03806855  0.62129151     0.84400
O297        O  0.46602829  0.02995092  0.89997102    -0.79700
O298        O  0.47827988  0.09224837  0.85985205    -0.90000
C299        C  0.46073471  0.47467168  0.51499124     0.83900
O300        O  0.03590216  0.53895120  0.86352631    -0.68200
O301        O  0.02619439  0.45139559  0.64133630    -0.87500
C302        C  0.04011732  0.50488252  0.88905375     0.84800
C303        C  0.45532910  0.06094861  0.87524033     1.06300
H304        H  0.00163600  0.42811493  0.56414908     0.38100
O305        O  0.98432461  0.44965447  0.57017636    -1.10100
O306        O  0.02427412  0.13755682  0.51281276    -0.66800
Ni307      Ni  0.05104692  0.09475949  0.47855915     1.26300
O308        O  0.47067693  0.40227900  0.99273919    -0.67000
O309        O  0.08653791  0.08586313  0.52354069    -0.79300
C310        C  0.04554941  0.05887325  0.99685646     0.84200
O311        O  0.02875380  0.06031081  0.03169306    -0.66500
Ni312      Ni  0.51211863  0.53387456  0.55693273     1.27400
Ni313      Ni  0.49439102  0.03600717  0.94938746     1.26100
H314        H  0.50141005  0.11480050  0.93756285     0.38700
C315        C  0.11178675  0.20604207  0.74097790     0.79900
N316        N  0.08837528  0.18506707  0.77015589    -0.78400
C317        C  0.09587054  0.14659071  0.79102054     0.82300
N318        N  0.12768824  0.12872032  0.78358707    -0.78400
C319        C  0.15174072  0.14819411  0.75383196     0.82400
N320        N  0.14428240  0.18807388  0.73244243    -0.80100
C321        C  0.06673000  0.09703842  0.97732815     0.79900
N322        N  0.05877653  0.10749612  0.93662669    -0.78400
C323        C  0.08077149  0.13605186  0.91221826     0.82300
N324        N  0.11194784  0.15395823  0.92796511    -0.78400
C325        C  0.12040690  0.14425481  0.96921067     0.82400
N326        N  0.09779831  0.11501610  0.99426426    -0.80100
O327        O  0.17714467  0.18440206  0.95661765    -0.81300
O328        O  0.33891027  0.38089609  0.48311128    -0.65900
O329        O  0.23061755  0.20363452  0.01484192    -1.12500
C330        C  0.19327146  0.32825360  0.53238421     1.05600
O331        O  0.32402239  0.35687988  0.55000738    -0.79100
O332        O  0.27800101  0.28528161  0.56903253    -0.66700
Ni333      Ni  0.22954793  0.19807976  0.95539408     1.34900
C334        C  0.26775174  0.24917975  0.55317519     0.84400
O335        O  0.30218392  0.23440094  0.01102167    -0.79700
O336        O  0.28238860  0.20868729  0.94982924    -0.90000
C337        C  0.34622179  0.37741038  0.52236313     0.83900
O338        O  0.22075505  0.25878077  0.93981302    -0.68200
O339        O  0.21868601  0.33887962  0.55772710    -0.87500
C340        C  0.23244610  0.29472173  0.95491283     0.84800
C341        C  0.30738767  0.21642657  0.97663946     1.06300
H342        H  0.25951008  0.36708090  0.48087807     0.38100
O343        O  0.26942815  0.34006725  0.49265208    -1.10100
O344        O  0.24938679  0.24774565  0.51958317    -0.66800
Ni345      Ni  0.24089419  0.29111084  0.47319856     1.26300
O346        O  0.25221714  0.29570178  0.98742429    -0.67000
O347        O  0.19793056  0.30817557  0.49912476    -0.79300
C348        C  0.15510245  0.16379081  0.98441980     0.84200
O349        O  0.16153922  0.16237823  0.02390570    -0.66500
Ni350      Ni  0.27144788  0.34638356  0.55192085     1.27400
Ni351      Ni  0.25867532  0.25261976  0.03485516     1.26100
H352        H  0.24033255  0.17643990  0.02681465     0.38700
C353        C  0.39007065  0.33556816  0.76984346     0.79900
N354        N  0.35661261  0.35202814  0.77589221    -0.78400
C355        C  0.34806930  0.38952526  0.75145437     0.82300
N356        N  0.37184557  0.40770329  0.72077689    -0.78400
C357        C  0.40461864  0.39122287  0.71575018     0.82400
N358        N  0.41338250  0.35553469  0.74009320    -0.80100
C359        C  0.43828984  0.43581870  0.53120727     0.79900
N360        N  0.40605845  0.42203680  0.51369092    -0.78400
C361        C  0.38205926  0.39332526  0.53759949     0.82300
N362        N  0.39005184  0.38082021  0.57841682    -0.78400
C363        C  0.42214828  0.39469151  0.59477084     0.82400
N364        N  0.44575613  0.42199272  0.57131993    -0.80100
C365        C  0.42175099  0.39743846  0.67572497    -0.13600
C366        C  0.42599281  0.39364358  0.63891254    -0.15200
C367        C  0.07558189  0.13760027  0.86819470    -0.13600
C368        C  0.07883324  0.13674409  0.83084612    -0.15200
C369        C  0.12433591  0.37083728  0.95583808    -0.13600
C370        C  0.09484113  0.37600446  0.94217352    -0.15200
C371        C  0.37732061  0.17454373  0.55431637    -0.13600
C372        C  0.40620682  0.16717924  0.56871520    -0.15200
C373        C  0.35577728  0.05309584  0.96915217    -0.13600
C374        C  0.36005723  0.08069007  0.99441523    -0.15200
C375        C  0.13843057  0.46150544  0.50958763    -0.13600
C376        C  0.14499826  0.49149916  0.53186245    -0.15200
C377        C  0.10226733  0.85369951  0.06367483     0.79900
N378        N  0.10191833  0.89302391  0.03956165    -0.78400
C379        C  0.12995412  0.90725552  0.01231313     0.82300
N380        N  0.15758253  0.88090124  0.00791015    -0.78400
C381        C  0.15866716  0.84151193  0.03123179     0.82400
N382        N  0.13176213  0.82846107  0.06076349    -0.80100
C383        C  0.16939878  0.52053013  0.11678042     0.79900
N384        N  0.16002469  0.98119726  0.10789321    -0.78400
C385        C  0.13649493  0.98919046  0.07617568     0.82300
N386        N  0.10080851  0.98734165  0.08528456    -0.78400
C387        C  0.11590192  0.53936928  0.08039397     0.82400
N388        N  0.14905493  0.55223088  0.09660400    -0.80100
O389        O  0.20320675  0.61867944  0.28805237    -0.81300
O390        O  0.29645785  0.91567929  0.29019694    -0.65900
O391        O  0.26836633  0.59220076  0.25426135    -1.12500
C392        C  0.20284670  0.53200064  0.14011482     1.05600
O393        O  0.29907170  0.92506669  0.21960322    -0.79100
O394        O  0.29540259  0.56652286  0.13359184    -0.66700
Ni395      Ni  0.24860813  0.59836468  0.30994413     1.34900
C396        C  0.28368499  0.60479892  0.13853972     0.84400
O397        O  0.33242103  0.56239711  0.29037427    -0.79700
O398        O  0.29269583  0.58017762  0.33905128    -0.90000
C399        C  0.31156353  0.90986513  0.25496212     0.83900
O400        O  0.22524166  0.53903779  0.31839859    -0.68200
O401        O  0.20811938  0.96066192  0.17062514    -0.87500
C402        C  0.21881093  0.93845440  0.36932829     0.84800
C403        C  0.32479801  0.57063147  0.32806837     1.06300
H404        H  0.21986875  0.92396818  0.26431927     0.38100
O405        O  0.23414956  0.95088218  0.25441953    -1.10100
O406        O  0.26114714  0.61202071  0.16774735    -0.66800
Ni407      Ni  0.23410744  0.57541515  0.21189319     1.26300
O408        O  0.24220045  0.93112620  0.34104364    -0.67000
O409        O  0.20006003  0.55703007  0.17044746    -0.79300
C410        C  0.19055002  0.63215045  0.25225534     0.84200
O411        O  0.20601149  0.62594284  0.21737143    -0.66500
Ni412      Ni  0.25308744  0.94430565  0.19848825     1.27400
Ni413      Ni  0.29718761  0.54232805  0.25067515     1.26100
H414        H  0.28260391  0.61935681  0.24455766     0.38700
C415        C  0.34015870  0.69609463  0.46814874     0.79900
N416        N  0.34178930  0.65823546  0.49363665    -0.78400
C417        C  0.36992261  0.63237715  0.49108243     0.82300
N418        N  0.39777225  0.64550928  0.46314023    -0.78400
C419        C  0.39687727  0.68367418  0.43725419     0.82400
N420        N  0.36708828  0.70844525  0.43869611    -0.80100
C421        C  0.41281036  0.55755501  0.38598522     0.79900
N422        N  0.39871881  0.54711943  0.42537032    -0.78400
C423        C  0.36306086  0.54655188  0.43427748     0.82300
N424        N  0.33999196  0.55679992  0.40255897    -0.78400
C425        C  0.35257341  0.56495499  0.36165773     0.82400
N426        N  0.35710818  0.99175923  0.41049892    -0.80100
C427        C  0.29724563  0.64235560  0.10844299     0.79900
N428        N  0.33040527  0.64036308  0.08984618    -0.78400
C429        C  0.34395452  0.67346447  0.06143796     0.82300
N430        N  0.32473249  0.70900903  0.05172845    -0.78400
C431        C  0.29124102  0.71127449  0.06908070     0.82400
N432        N  0.27710687  0.67809020  0.09786720    -0.80100
C433        C  0.44850526  0.64804019  0.16695289     0.79900
N434        N  0.43593106  0.66960873  0.13142662    -0.78400
C435        C  0.43216386  0.64963425  0.09506591     0.82300
N436        N  0.43876572  0.60664380  0.09420132    -0.78400
C437        C  0.45138060  0.58291878  0.12827303     0.82400
N438        N  0.00043043  0.70256125  0.07948176    -0.80100
O439        O  0.09420535  0.77421441  0.25431642    -0.81300
O440        O  0.41441841  0.78452332  0.31185497    -0.65900
O441        O  0.47283219  0.68425185  0.32336908    -1.12500
C442        C  0.07469840  0.84435601  0.09854149     1.05600
O443        O  0.40837516  0.76551187  0.24689984    -0.79100
O444        O  0.44972253  0.71890655  0.19382618    -0.66700
Ni445      Ni  0.04690210  0.76743781  0.28223610     1.34900
C446        C  0.45566786  0.67800614  0.20245070     0.84400
O447        O  0.41502651  0.71378350  0.36873067    -0.79700
O448        O  0.45678760  0.67897346  0.40851333    -0.90000
C449        C  0.40068823  0.79109324  0.27562429     0.83900
O450        O  0.05468668  0.82295172  0.30853815    -0.68200
O451        O  0.04306403  0.86010246  0.09418018    -0.87500
C452        C  0.04733559  0.86350881  0.30029745     0.84800
C453        C  0.42474492  0.69313826  0.40300049     1.06300
H454        H  0.04474694  0.88054029  0.18323474     0.38100
O455        O  0.02821271  0.85480035  0.17973417    -1.10100
O456        O  0.02581593  0.76447179  0.14717423    -0.66800
Ni457      Ni  0.05594149  0.80337431  0.18196559     1.26300
O458        O  0.47281053  0.77410864  0.35741683    -0.67000
O459        O  0.08444097  0.82296991  0.13239531    -0.79300
C460        C  0.10038922  0.74771354  0.22577533     0.84200
O461        O  0.08529576  0.75352068  0.19027308    -0.66500
Ni462      Ni  0.45645344  0.77364953  0.22115066     1.27400
Ni463      Ni  0.44449798  0.73516561  0.32064556     1.26100
H464        H  0.45687232  0.65814494  0.31952157     0.38700
C465        C  0.20504346  0.90132312  0.39960292     0.79900
N466        N  0.22489570  0.86542791  0.41020583    -0.78400
C467        C  0.21070764  0.83261942  0.43923921     0.82300
N468        N  0.17716230  0.83510831  0.45646549    -0.78400
C469        C  0.15806623  0.87075640  0.44647912     0.82400
N470        N  0.17188583  0.90366069  0.41805115    -0.80100
C471        C  0.04929562  0.95874549  0.37493428     0.79900
N472        N  0.06255991  0.93552955  0.40886416    -0.78400
C473        C  0.07056489  0.89301452  0.40775355     0.82300
N474        N  0.06751061  0.87298171  0.37127438    -0.78400
C475        C  0.05421634  0.89395140  0.33581133     0.82400
N476        N  0.49936969  0.83760802  0.42491428    -0.80100
O477        O  0.03969602  0.52656678  0.47483480    -0.81300
O478        O  0.46935127  0.98266752  0.97190100    -0.65900
O479        O  0.51793670  0.59036651  0.43804129    -1.12500
C480        C  0.09103230  0.57053337  0.05918552     1.05600
O481        O  0.45789535  0.02315561  0.02481618    -0.79100
O482        O  0.46631128  0.50437854  0.14384224    -0.66700
Ni483      Ni  0.99364210  0.50775726  0.45194662     1.34900
C484        C  0.46235931  0.53791252  0.11754478     0.84400
O485        O  0.46490514  0.52731787  0.40972582    -0.79700
O486        O  0.47481898  0.58971012  0.36809207    -0.90000
C487        C  0.45173340  0.98804422  0.00541249     0.83900
O488        O  0.03468573  0.03761388  0.36055563    -0.68200
O489        O  0.02448978  0.94828570  0.14262542    -0.87500
C490        C  0.03648624  0.00290621  0.38618286     0.84800
C491        C  0.45318862  0.55770169  0.38472061     1.06300
H492        H  0.00032199  0.92576355  0.06532988     0.38100
O493        O  0.98352739  0.94796299  0.07109349    -1.10100
O494        O  0.03360684  0.63772962  0.01642068    -0.66800
Ni495      Ni  0.05898275  0.59555458  0.98002889     1.26300
O496        O  0.47309135  0.90484173  0.49357362    -0.67000
O497        O  0.09760610  0.58751178  0.02113774    -0.79300
C498        C  0.04353695  0.56118241  0.49553073     0.84200
O499        O  0.02654462  0.56310388  0.53016456    -0.66500
Ni500      Ni  0.50435394  0.03251413  0.05026830     1.27400
Ni501      Ni  0.49672793  0.53296384  0.45646842     1.26100
H502        H  0.50126244  0.61236413  0.44470042     0.38700
C503        C  0.11129909  0.70330441  0.23935445     0.79900
N504        N  0.08789589  0.67998433  0.26717894    -0.78400
C505        C  0.09683246  0.64194801  0.28783672     0.82300
N506        N  0.12996328  0.62703540  0.28140132    -0.78400
C507        C  0.15399940  0.64912155  0.25306459     0.82400
N508        N  0.14512094  0.68843624  0.23206803    -0.80100
C509        C  0.06442347  0.59902267  0.47530256     0.79900
N510        N  0.05719181  0.60742427  0.43405247    -0.78400
C511        C  0.08027689  0.63352416  0.40867637     0.82300
N512        N  0.11161837  0.65128872  0.42418084    -0.78400
C513        C  0.11927185  0.64367613  0.46595705     0.82400
N514        N  0.09574894  0.61663251  0.49181961    -0.80100
O515        O  0.17606601  0.68318516  0.45321529    -0.81300
O516        O  0.33913324  0.88066697  0.98124979    -0.65900
O517        O  0.23014983  0.70205029  0.51121484    -1.12500
C518        C  0.19350211  0.82121334  0.02896428     1.05600
O519        O  0.32238149  0.86135568  0.04870588    -0.79100
O520        O  0.28095755  0.78670832  0.06822477    -0.66700
Ni521      Ni  0.22831642  0.69672346  0.45156717     1.34900
C522        C  0.27197243  0.74960928  0.05366103     0.84400
O523        O  0.30102834  0.73591334  0.50505396    -0.79700
O524        O  0.28092260  0.70767605  0.44508542    -0.90000
C525        C  0.34440548  0.88148526  0.02082261     0.83900
O526        O  0.21901339  0.75713412  0.43640927    -0.68200
O527        O  0.21811342  0.83319360  0.05472685    -0.87500
C528        C  0.22912892  0.79298660  0.45260184     0.84800
C529        C  0.30612285  0.71752278  0.47094486     1.06300
H530        H  0.26013864  0.86320412  0.97694101     0.38100
O531        O  0.27066609  0.83728619  0.99016896    -1.10100
O532        O  0.25348837  0.74572202  0.02047032    -0.66800
Ni533      Ni  0.24446464  0.78588114  0.97201635     1.26300
O534        O  0.24860645  0.79456468  0.48522076    -0.67000
O535        O  0.19981747  0.80160650  0.99574582    -0.79300
C536        C  0.15418741  0.66252173  0.48101170     0.84200
O537        O  0.16116116  0.66012373  0.52035644    -0.66500
Ni538      Ni  0.27056118  0.84588745  0.04931374     1.27400
Ni539      Ni  0.25782639  0.75150698  0.53119634     1.26100
H540        H  0.24047131  0.67511557  0.52273654     0.38700
C541        C  0.38935508  0.83545618  0.26215766     0.79900
N542        N  0.35642459  0.85146282  0.27225623    -0.78400
C543        C  0.34774282  0.89178575  0.25292433     0.82300
N544        N  0.37118296  0.91390985  0.22403756    -0.78400
C545        C  0.40330699  0.89791088  0.21482303     0.82400
N546        N  0.41190160  0.85859799  0.23320699    -0.80100
C547        C  0.43010214  0.95222541  0.02734255     0.79900
N548        N  0.40018748  0.93179769  0.01042687    -0.78400
C549        C  0.37775644  0.90342166  0.03626071     0.82300
N550        N  0.38547144  0.89633238  0.07806103    -0.78400
C551        C  0.41567157  0.91667974  0.09375682     0.82400
N552        N  0.43739111  0.94485964  0.06868230    -0.80100
C553        C  0.41962297  0.91171732  0.17527695    -0.13600
C554        C  0.42169791  0.91442620  0.13764871    -0.15200
C555        C  0.07587478  0.63226811  0.36462299    -0.13600
C556        C  0.07955791  0.63064729  0.32736979    -0.15200
C557        C  0.12022250  0.86823066  0.45527883    -0.13600
C558        C  0.09094383  0.87407980  0.44125591    -0.15200
C559        C  0.38141546  0.67540838  0.05059812    -0.13600
C560        C  0.41130417  0.66899646  0.06231682    -0.15200
C561        C  0.35454654  0.55483654  0.47697147    -0.13600
C562        C  0.36095402  0.58553203  0.49845257    -0.15200
C563        C  0.13983398  0.95405840  0.00906697    -0.13600
C564        C  0.14561434  0.98252802  0.03320969    -0.15200
C565        C  0.06070934  0.77123837  0.66633363     0.79900
N566        N  0.06430571  0.81478400  0.65033555    -0.78400
C567        C  0.09150277  0.82911513  0.62214144     0.82300
N568        N  0.11501689  0.80033281  0.60959290    -0.78400
C569        C  0.11240962  0.75712844  0.62480517     0.82400
N570        N  0.08551063  0.74213137  0.65411327    -0.80100
C571        C  0.14855415  0.47763680  0.64692618     0.79900
N572        N  0.15588908  0.97299095  0.61095227    -0.78400
C573        C  0.12463365  0.95870932  0.59296095     0.82300
N574        N  0.10296330  0.98861311  0.57504087    -0.78400
C575        C  0.08790949  0.48542491  0.62391962     0.82400
N576        N  0.11150396  0.47580016  0.65624081    -0.80100
O577        O  0.17640632  0.55043341  0.83041407    -0.81300
O578        O  0.32088758  0.98667564  0.74042996    -0.65900
O579        O  0.24307808  0.51992629  0.79500805    -1.12500
C580        C  0.17697388  0.47151597  0.67979466     1.05600
O581        O  0.32489126  0.98842322  0.67036068    -0.79100
O582        O  0.27680146  0.50189948  0.68443097    -0.66700
Ni583      Ni  0.22619299  0.53725193  0.84888080     1.34900
C584        C  0.26121680  0.53800380  0.68677177     0.84400
O585        O  0.30590008  0.48663533  0.83360904    -0.79700
O586        O  0.27428866  0.53050034  0.87291942    -0.90000
C587        C  0.33492219  0.97388056  0.70731682     0.83900
O588        O  0.20992440  0.47816572  0.87178560    -0.68200
O589        O  0.22787850  0.01252115  0.62680770    -0.87500
C590        C  0.24094898  0.99854889  0.81579210     0.84800
C591        C  0.30317490  0.51100053  0.86453918     1.06300
H592        H  0.24331425  0.99225254  0.71862025     0.38100
O593        O  0.25769702  0.01827065  0.70632133    -1.10100
O594        O  0.23255504  0.53958932  0.70974255    -0.66800
Ni595      Ni  0.20708204  0.50161318  0.75554402     1.26300
O596        O  0.26896146  0.99755028  0.79158068    -0.67000
O597        O  0.17059171  0.48132081  0.71733253    -0.79300
C598        C  0.16658745  0.56513781  0.79348157     0.84200
O599        O  0.18046963  0.55216585  0.76033453    -0.66500
Ni600      Ni  0.27543683  0.00386841  0.65167724     1.27400
Ni601      Ni  0.27068580  0.46792716  0.79325460     1.26100
H602        H  0.25807999  0.54520864  0.78205909     0.38700
C603        C  0.39225551  0.78061094  0.88076896     0.79900
N604        N  0.38976549  0.73667032  0.89397197    -0.78400
C605        C  0.41331195  0.70866663  0.87962580     0.82300
N606        N  0.44022294  0.72454047  0.85171659    -0.78400
C607        C  0.44365164  0.76860789  0.83762333     0.82400
N608        N  0.41886354  0.79692207  0.85147159    -0.80100
C609        C  0.38864069  0.50266889  0.92748097     0.79900
N610        N  0.40067877  0.54647783  0.92421962    -0.78400
C611        C  0.38105308  0.57770336  0.90422311     0.82300
N612        N  0.34893941  0.56539752  0.88682847    -0.78400
C613        C  0.33633555  0.52179736  0.88882965     0.82400
N614        N  0.39087474  0.06770646  0.84398391    -0.80100
C615        C  0.27469350  0.57929228  0.66023501     0.79900
N616        N  0.31110602  0.58985242  0.65130144    -0.78400
C617        C  0.32212285  0.62912367  0.62821840     0.82300
N618        N  0.29661898  0.65695794  0.61420191    -0.78400
C619        C  0.26048761  0.64632002  0.62187993     0.82400
N620        N  0.24971382  0.60788223  0.64538426    -0.80100
C621        C  0.48101725  0.72590198  0.60404546     0.79900
N622        N  0.44508672  0.71315480  0.61284644    -0.78400
C623        C  0.42884275  0.67591730  0.59715214     0.82300
N624        N  0.44858877  0.65192024  0.57176156    -0.78400
C625        C  0.48437045  0.66328109  0.56153943     0.82400
N626        N  0.95717106  0.60465516  0.66834195    -0.80100
O627        O  0.04786505  0.66709156  0.84071508    -0.81300
O628        O  0.47691999  0.89198316  0.72473946    -0.65900
O629        O  0.52649820  0.78580485  0.72926581    -1.12500
C630        C  0.02996242  0.75758757  0.69706952     1.05600
O631        O  0.45504342  0.87330124  0.66372532    -0.79100
O632        O  0.48152690  0.80309072  0.62063888    -0.66700
Ni633      Ni  0.00316098  0.67454964  0.87467081     1.34900
C634        C  0.49776764  0.76674493  0.62387711     0.84400
O635        O  0.47249182  0.81831407  0.78133681    -0.79700
O636        O  0.50156228  0.75851966  0.80760432    -0.90000
C637        C  0.45216058  0.89374540  0.69792176     0.83900
O638        O  0.02054055  0.73544909  0.88516099    -0.68200
O639        O  0.00293651  0.78264268  0.69648898    -0.87500
C640        C  0.00482978  0.77212933  0.88149421     0.84800
C641        C  0.47436572  0.78331561  0.80717434     1.06300
H642        H  0.99461028  0.77897583  0.78212333     0.38100
O643        O  0.97742238  0.75511535  0.77500435    -1.10100
O644        O  0.96981536  0.66608286  0.74065356    -0.66800
Ni645      Ni  0.00263200  0.70220036  0.77439348     1.26300
O646        O  0.53433396  0.87492344  0.76340841    -0.67000
O647        O  0.03163437  0.72275620  0.72314611    -0.79300
C648        C  0.05126057  0.64722849  0.80628056     0.84200
O649        O  0.02671695  0.64889312  0.77927368    -0.66500
Ni650      Ni  0.49918809  0.86437885  0.62928749     1.27400
Ni651      Ni  0.50121178  0.83864738  0.72978725     1.26100
H652        H  0.50918765  0.76181990  0.72259347     0.38700
C653        C  0.22792944  0.95657145  0.84206990     0.79900
N654        N  0.25294628  0.92717353  0.85529687    -0.78400
C655        C  0.24233291  0.88838981  0.87856749     0.82300
N656        N  0.20636597  0.87845579  0.88795064    -0.78400
C657        C  0.18087239  0.90711674  0.87571703     0.82400
N658        N  0.19174005  0.94656435  0.85277860    -0.80100
C659        C  0.01822009  0.87476181  0.94484961     0.79900
N660        N  0.05415594  0.88605157  0.93511030    -0.78400
C661        C  0.07405735  0.86207347  0.90974770     0.82300
N662        N  0.05774440  0.82511911  0.89358178    -0.78400
C663        C  0.02169302  0.81258397  0.90185389     0.82400
N664        N  0.54595182  0.93627589  0.83607815    -0.80100
O665        O  0.08201870  0.61234764  0.88870545    -0.81300
O666        O  0.41696569  0.89937962  0.55489966    -0.65900
O667        O  0.47107192  0.49844215  0.00560876    -1.12500
C668        C  0.04740939  0.48417087  0.62545663     1.05600
O669        O  0.41875687  0.93075759  0.61709452    -0.79100
O670        O  0.48984936  0.58845345  0.55140072    -0.66700
Ni671      Ni  0.02936945  0.60068134  0.87906510     1.34900
C672        C  0.50409167  0.62729074  0.54111826     0.84400
O673        O  0.40760387  0.45343800  0.98538231    -0.79700
O674        O  0.44587223  0.47311806  0.93055180    -0.90000
C675        C  0.40540580  0.90084682  0.59326610     0.83900
O676        O  0.00994679  0.94961242  0.94979713    -0.68200
O677        O  0.05081973  0.04707982  0.57523826    -0.87500
C678        C  0.99805687  0.91097416  0.96422289     0.84800
C679        C  0.41409591  0.47169671  0.94767602     1.06300
H680        H  0.04059877  0.01846273  0.49723753     0.38100
O681        O  0.02404522  0.04201144  0.49791059    -1.10100
O682        O  0.96899544  0.53802206  0.57953620    -0.66800
Ni683      Ni  0.00524501  0.50730967  0.55258938     1.26300
O684        O  0.52906427  0.00156113  0.92397234    -0.67000
O685        O  0.03504287  0.51442550  0.60094256    -0.79300
C686        C  0.09709988  0.64188512  0.91174566     0.84200
O687        O  0.08625436  0.64520663  0.95002976    -0.66500
Ni688      Ni  0.47050481  0.94093843  0.63130579     1.27400
Ni689      Ni  0.44513548  0.44546951  0.02777200     1.26100
H690        H  0.45454321  0.52212967  0.00562399     0.38700
C691        C  0.08712421  0.63800331  0.78904731     0.79900
N692        N  0.10090753  0.66972521  0.75958096    -0.78400
C693        C  0.13612828  0.67192397  0.74738061     0.82300
N694        N  0.15588968  0.63672602  0.75847788    -0.78400
C695        C  0.14235662  0.60236280  0.78590932     0.82400
N696        N  0.10790499  0.60362801  0.80310709    -0.80100
C697        C  0.12845645  0.67164355  0.89337732     0.79900
N698        N  0.12711361  0.68933816  0.85236899    -0.78400
C699        C  0.15585880  0.71505577  0.83397908     0.82300
N700        N  0.18653966  0.72027792  0.85541796    -0.78400
C701        C  0.18874934  0.70332725  0.89593160     0.82400
N702        N  0.15932104  0.68004418  0.91597997    -0.80100
O703        O  0.24970645  0.72553543  0.89299558    -0.81300
O704        O  0.28658788  0.79892862  0.55298429    -0.65900
O705        O  0.29083662  0.77366194  0.94691790    -1.12500
C706        C  0.14162637  0.73060201  0.61022782     1.05600
O707        O  0.25635778  0.80778096  0.61345302    -0.79100
O708        O  0.24324692  0.71913251  0.62189038    -0.66700
Ni709      Ni  0.29129147  0.76713047  0.88707686     1.34900
C710        C  0.23471685  0.68041262  0.61021541     0.84400
O711        O  0.36048477  0.81554714  0.93387225    -0.79700
O712        O  0.33373481  0.80748117  0.87372902    -0.90000
C713        C  0.28432696  0.81413743  0.58892850     0.83900
O714        O  0.26029960  0.81506250  0.88099328    -0.68200
O715        O  0.17031915  0.72851692  0.63151756    -0.87500
C716        C  0.26835543  0.85461931  0.89104623     0.84800
C717        C  0.36221884  0.80627704  0.89541634     1.06300
H718        H  0.20233328  0.78979943  0.54496642     0.38100
O719        O  0.21248441  0.76375872  0.55842205    -1.10100
O720        O  0.20604655  0.67174742  0.58840765    -0.66800
Ni721      Ni  0.18661072  0.71062795  0.54170909     1.26300
O722        O  0.29674172  0.86448914  0.91283352    -0.67000
O723        O  0.14267975  0.72242538  0.57154581    -0.79300
C724        C  0.22124013  0.71951922  0.91668901     0.84200
O725        O  0.21766548  0.73612428  0.95182597    -0.66500
Ni726      Ni  0.21348816  0.76793813  0.61860515     1.27400
Ni727      Ni  0.31539355  0.82819146  0.96178114     1.26100
H728        H  0.30117139  0.74845195  0.96173868     0.38700
C729        C  0.41642108  0.90390933  0.71514258     0.79900
N730        N  0.39489885  0.93700113  0.69949835    -0.78400
C731        C  0.35980199  0.93709613  0.71526749     0.82300
N732        N  0.34652258  0.90249314  0.74263961    -0.78400
C733        C  0.36732107  0.86882124  0.75567279     0.82400
N734        N  0.40288238  0.87267200  0.74510254    -0.80100
C735        C  0.37584595  0.86779799  0.61118692     0.79900
N736        N  0.34526195  0.85697317  0.58882980    -0.78400
C737        C  0.31754835  0.83012999  0.60872602     0.82300
N738        N  0.32119035  0.81257826  0.64883080    -0.78400
C739        C  0.35153840  0.82084703  0.67019366     0.82400
N740        N  0.37843453  0.84971310  0.65191899    -0.80100
C741        C  0.35204058  0.82535813  0.74914571    -0.13600
C742        C  0.35006606  0.80999076  0.71520148    -0.15200
C743        C  0.15737184  0.72740088  0.78920956    -0.13600
C744        C  0.15359153  0.71407938  0.75457383    -0.15200
C745        C  0.14242381  0.89377407  0.88648351    -0.13600
C746        C  0.11144139  0.87882259  0.89694825    -0.15200
C747        C  0.36064806  0.64338544  0.61945523    -0.13600
C748        C  0.39159007  0.65903076  0.60994829    -0.15200
C749        C  0.39582628  0.62310027  0.89796804    -0.13600
C750        C  0.40644194  0.66168371  0.89031278    -0.15200
C751        C  0.09913959  0.87536613  0.60928984    -0.13600
C752        C  0.11091817  0.91313402  0.59988691    -0.15200
C753        C  0.60316212  0.36015082  0.06625112     0.79900
N754        N  0.60139164  0.39917389  0.04171553    -0.78400
C755        C  0.62921092  0.41462176  0.01446218     0.82300
N756        N  0.65841208  0.39054550  0.01160932    -0.78400
C757        C  0.66100201  0.35214338  0.03599922     0.82400
N758        N  0.63386257  0.33713374  0.06436245    -0.80100
C759        C  0.66745145  0.01982975  0.11409993     0.79900
N760        N  0.65934749  0.48613631  0.10382535    -0.78400
C761        C  0.63575058  0.49856844  0.07335197     0.82300
N762        N  0.60029234  0.49749715  0.08330604    -0.78400
C763        C  0.61281328  0.03164626  0.07734349     0.82400
N764        N  0.64396547  0.04897260  0.09529752    -0.80100
O765        O  0.69883768  0.11305357  0.29073131    -0.81300
O766        O  0.79599121  0.41170480  0.28540093    -0.65900
O767        O  0.76422795  0.08929307  0.25431472    -1.12500
C768        C  0.69977219  0.03381098  0.13816494     1.05600
O769        O  0.79801481  0.41915372  0.21465953    -0.79100
O770        O  0.79372313  0.07061078  0.13629983    -0.66700
Ni771      Ni  0.74542325  0.09424861  0.31076935     1.34900
C772        C  0.77933915  0.10759818  0.14033128     0.84400
O773        O  0.82936409  0.05979027  0.28824237    -0.79700
O774        O  0.79082613  0.07807192  0.33799278    -0.90000
C775        C  0.81092214  0.40545765  0.25029432     0.83900
O776        O  0.72373932  0.03400594  0.32046956    -0.68200
O777        O  0.70773271  0.45847584  0.16551281    -0.87500
C778        C  0.71930884  0.43060366  0.36555569     0.84800
C779        C  0.82272085  0.06891801  0.32587342     1.06300
H780        H  0.71914647  0.41846234  0.25981841     0.38100
O781        O  0.73333980  0.44563310  0.25003609    -1.10100
O782        O  0.75472018  0.11232260  0.16805910    -0.66800
Ni783      Ni  0.72944841  0.07305892  0.21226084     1.26300
O784        O  0.74257541  0.42434240  0.33682097    -0.67000
O785        O  0.69505974  0.05464982  0.17111262    -0.79300
C786        C  0.68567640  0.12795961  0.25562498     0.84200
O787        O  0.70035554  0.12242652  0.22008472    -0.66500
Ni788      Ni  0.75228478  0.43987778  0.19372635     1.27400
Ni789      Ni  0.79370228  0.04003796  0.24905766     1.26100
H790        H  0.77805386  0.11673952  0.24478962     0.38700
C791        C  0.84478449  0.19465525  0.47633439     0.79900
N792        N  0.84609029  0.15501685  0.49918003    -0.78400
C793        C  0.87357849  0.12867174  0.49382886     0.82300
N794        N  0.90114328  0.14310500  0.46592462    -0.78400
C795        C  0.90049273  0.18286054  0.44247699     0.82400
N796        N  0.87122827  0.20808515  0.44649291    -0.80100
C797        C  0.91297412  0.06133686  0.38003807     0.79900
N798        N  0.90023277  0.05080239  0.41996581    -0.78400
C799        C  0.86476679  0.04782979  0.43021719     0.82300
N800        N  0.84042232  0.05649029  0.39952230    -0.78400
C801        C  0.85168144  0.06497552  0.35816511     0.82400
N802        N  0.85485465  0.48744803  0.40869606    -0.80100
C803        C  0.79285040  0.14612461  0.11087470     0.79900
N804        N  0.82580592  0.14338279  0.09224251    -0.78400
C805        C  0.84006240  0.17598898  0.06398659     0.82300
N806        N  0.82175958  0.21234337  0.05434975    -0.78400
C807        C  0.78830287  0.21572095  0.07151268     0.82400
N808        N  0.77336300  0.18265891  0.10030074    -0.80100
C809        C  0.94548152  0.14666574  0.17045619     0.79900
N810        N  0.93121129  0.16748051  0.13558275    -0.78400
C811        C  0.92715986  0.14742088  0.09927831     0.82300
N812        N  0.93526847  0.10494359  0.09777426    -0.78400
C813        C  0.94969778  0.08203002  0.13121466     0.82400
N814        N  0.49981216  0.20290506  0.07930060    -0.80100
O815        O  0.59201238  0.27432259  0.25459837    -0.81300
O816        O  0.91488028  0.28468306  0.31658887    -0.65900
O817        O  0.97328068  0.18495807  0.32570502    -1.12500
C818        C  0.57506130  0.34793986  0.09988347     1.05600
O819        O  0.90659513  0.26371729  0.25265059    -0.79100
O820        O  0.94636446  0.21771994  0.19720953    -0.66700
Ni821      Ni  0.54472150  0.26715530  0.28208765     1.34900
C822        C  0.95317275  0.17707102  0.20558489     0.84400
O823        O  0.91703763  0.21460771  0.37379437    -0.79700
O824        O  0.95955811  0.17887918  0.41138240    -0.90000
C825        C  0.90001408  0.29024275  0.28095159     0.83900
O826        O  0.55291522  0.32198332  0.30886265    -0.68200
O827        O  0.54324359  0.36294034  0.09515040    -0.87500
C828        C  0.54698054  0.36287732  0.30038992     0.84800
C829        C  0.92751127  0.19332235  0.40737567     1.06300
H830        H  0.54479140  0.38111464  0.18349865     0.38100
O831        O  0.52820726  0.35548409  0.17997338    -1.10100
O832        O  0.52583785  0.26539414  0.14656941    -0.66800
Ni833      Ni  0.55553304  0.30385157  0.18213161     1.26300
O834        O  0.97465064  0.27484541  0.35933058    -0.67000
O835        O  0.58441817  0.32473105  0.13303124    -0.79300
C836        C  0.59848422  0.24714811  0.22687167     0.84200
O837        O  0.58470885  0.25333884  0.19059535    -0.66500
Ni838      Ni  0.95352060  0.27265129  0.22424252     1.27400
Ni839      Ni  0.94504372  0.23562081  0.32424982     1.26100
H840        H  0.95684501  0.15928105  0.32215713     0.38700
C841        C  0.70659944  0.39327912  0.39648571     0.79900
N842        N  0.72727243  0.35847451  0.40900026    -0.78400
C843        C  0.71341608  0.32654044  0.43942539     0.82300
N844        N  0.67957133  0.32896432  0.45597532    -0.78400
C845        C  0.65996218  0.36367069  0.44415494     0.82400
N846        N  0.67338674  0.39543979  0.41457286    -0.80100
C847        C  0.55040909  0.45673530  0.37594308     0.79900
N848        N  0.56486401  0.43335070  0.40907700    -0.78400
C849        C  0.57321186  0.39105342  0.40694665     0.82300
N850        N  0.56937475  0.37164546  0.37027940    -0.78400
C851        C  0.55499513  0.39291092  0.33569068     0.82400
N852        N  0.00126342  0.33830399  0.42576736    -0.80100
O853        O  0.54339420  0.02176539  0.48030261    -0.81300
O854        O  0.98036039  0.48016251  0.97995577    -0.65900
O855        O  0.01516070  0.09413972  0.43380664    -1.12500
C856        C  0.58300959  0.05711676  0.05890673     1.05600
O857        O  0.97162660  0.50648489  0.04302944    -0.79100
O858        O  0.96513568  0.00365397  0.14503078    -0.66700
Ni859      Ni  0.49695922  0.00796020  0.45541426     1.34900
C860        C  0.96313727  0.03847017  0.11964656     0.84400
O861        O  0.96502790  0.02999800  0.40116508    -0.79700
O862        O  0.97517533  0.09297105  0.36153151    -0.90000
C863        C  0.96545577  0.47725079  0.01630195     0.83900
O864        O  0.53373070  0.53474020  0.36276225    -0.68200
O865        O  0.52522601  0.44952245  0.14054644    -0.87500
C866        C  0.53727539  0.50028378  0.38809190     0.84800
C867        C  0.95323532  0.06079688  0.37710097     1.06300
H868        H  0.50026843  0.42514007  0.06398428     0.38100
O869        O  0.48308572  0.44679379  0.06991971    -1.10100
O870        O  0.52634000  0.13563297  0.01057788    -0.66800
Ni871      Ni  0.55344662  0.09214588  0.97799509     1.26300
O872        O  0.97296079  0.40550636  0.49242252    -0.67000
O873        O  0.58795370  0.08287918  0.02425414    -0.79300
C874        C  0.54826420  0.05574633  0.50179356     0.84200
O875        O  0.52996290  0.05874599  0.53528457    -0.66500
Ni876      Ni  0.01589125  0.53865061  0.05803114     1.27400
Ni877      Ni  0.99291087  0.03709428  0.45079946     1.26100
H878        H  0.99790255  0.11625483  0.43912101     0.38700
C879        C  0.60824948  0.20262948  0.24233069     0.79900
N880        N  0.58611480  0.18340817  0.27377967    -0.78400
C881        C  0.59517726  0.14706505  0.29710460     0.82300
N882        N  0.62723821  0.12971375  0.28987026    -0.78400
C883        C  0.64999942  0.14750184  0.25804525     0.82400
N884        N  0.64097991  0.18517185  0.23417066    -0.80100
C885        C  0.56991162  0.09333146  0.48273820     0.79900
N886        N  0.56108877  0.10607178  0.44281323    -0.78400
C887        C  0.58303524  0.13524150  0.41899160     0.82300
N888        N  0.61498669  0.15107181  0.43442647    -0.78400
C889        C  0.62417953  0.13891656  0.47493025     0.82400
N890        N  0.60159983  0.10943083  0.49952018    -0.80100
O891        O  0.68224102  0.17376101  0.46151861    -0.81300
O892        O  0.84210711  0.38481199  0.98277328    -0.65900
O893        O  0.73359554  0.20050022  0.51936097    -1.12500
C894        C  0.69544302  0.33182226  0.03256518     1.05600
O895        O  0.82517888  0.36740945  0.05054324    -0.79100
O896        O  0.78294364  0.29263890  0.06989698    -0.66700
Ni897      Ni  0.73364170  0.19167688  0.46015330     1.34900
C898        C  0.77061649  0.25593226  0.05672692     0.84400
O899        O  0.80471620  0.23334813  0.51431183    -0.79700
O900        O  0.78575711  0.20718331  0.45328095    -0.90000
C901        C  0.84828739  0.38487453  0.02231498     0.83900
O902        O  0.72103787  0.25026091  0.44239579    -0.68200
O903        O  0.72046971  0.34079207  0.05893847    -0.87500
C904        C  0.73223600  0.28757701  0.45501081     0.84800
C905        C  0.81054619  0.21575543  0.47993866     1.06300
H906        H  0.76269630  0.37107707  0.98051220     0.38100
O907        O  0.77229983  0.34428580  0.99352725    -1.10100
O908        O  0.75000512  0.25363789  0.02498042    -0.66800
Ni909      Ni  0.74385512  0.29442476  0.97556988     1.26300
O910        O  0.75319277  0.29130397  0.48629312    -0.67000
O911        O  0.70078765  0.31400963  0.99826267    -0.79300
C912        C  0.65914736  0.15698682  0.48989324     0.84200
O913        O  0.66446133  0.15896843  0.52931574    -0.66500
Ni914      Ni  0.77312416  0.35260878  0.05248568     1.27400
Ni915      Ni  0.76061707  0.25184648  0.53638102     1.26100
H916        H  0.74355661  0.17439791  0.53313127     0.38700
C917        C  0.88975612  0.33457267  0.26673604     0.79900
N918        N  0.85572301  0.34938698  0.27222178    -0.78400
C919        C  0.84712179  0.38783269  0.24956557     0.82300
N920        N  0.87161748  0.40910205  0.22132912    -0.78400
C921        C  0.90500314  0.39421600  0.21671025     0.82400
N922        N  0.91372296  0.35710460  0.23909031    -0.80100
C923        C  0.94213062  0.43891378  0.03171907     0.79900
N924        N  0.90960339  0.42683301  0.01381847    -0.78400
C925        C  0.88406670  0.40066174  0.03805160     0.82300
N926        N  0.89079130  0.38957665  0.07955390    -0.78400
C927        C  0.92317943  0.40168038  0.09620164     0.82400
N928        N  0.94843849  0.42577244  0.07232976    -0.80100
C929        C  0.92293262  0.40376360  0.17743938    -0.13600
C930        C  0.92687206  0.40141210  0.14036348    -0.15200
C931        C  0.57681669  0.13946304  0.37521694    -0.13600
C932        C  0.57922131  0.13928467  0.33774499    -0.15200
C933        C  0.62229759  0.36217629  0.45370236    -0.13600
C934        C  0.59343968  0.37080087  0.43997397    -0.15200
C935        C  0.87748887  0.17609555  0.05359535    -0.13600
C936        C  0.90656802  0.16713616  0.06635416    -0.15200
C937        C  0.85678722  0.05336973  0.47368155    -0.13600
C938        C  0.86370433  0.08183108  0.49753270    -0.15200
C939        C  0.63660649  0.46184252  0.00802336    -0.13600
C940        C  0.64316121  0.49210902  0.02997872    -0.15200
C941        C  0.55744986  0.27021293  0.66791120     0.79900
N942        N  0.56112112  0.31471036  0.65568632    -0.78400
C943        C  0.58886907  0.33184062  0.62954910     0.82300
N944        N  0.61298110  0.30477020  0.61495249    -0.78400
C945        C  0.61040746  0.26045638  0.62622147     0.82400
N946        N  0.58297885  0.24272288  0.65400157    -0.80100
C947        C  0.64687657  0.97206994  0.64973596     0.79900
N948        N  0.65492438  0.47618340  0.62450228    -0.78400
C949        C  0.62260906  0.46255890  0.60831663     0.82300
N950        N  0.60277375  0.49230070  0.58674609    -0.78400
C951        C  0.58576253  0.97595435  0.62690485     0.82400
N952        N  0.60990616  0.97040221  0.65943871    -0.80100
O953        O  0.67223823  0.04436661  0.83570976    -0.81300
O954        O  0.82381870  0.49126572  0.74581526    -0.65900
O955        O  0.73948780  0.01620192  0.79982109    -1.12500
C956        C  0.67557521  0.96857937  0.68262558     1.05600
O957        O  0.82820070  0.49507297  0.67561609    -0.79100
O958        O  0.77474537  0.00404837  0.68982859    -0.66700
Ni959      Ni  0.72231606  0.03241236  0.85392802     1.34900
C960        C  0.75835344  0.03944249  0.69324852     0.84400
O961        O  0.80287472  0.98395299  0.83807257    -0.79700
O962        O  0.77065373  0.02713435  0.87744778    -0.90000
C963        C  0.83770249  0.47920856  0.71230071     0.83900
O964        O  0.70761698  0.97265929  0.87634360    -0.68200
O965        O  0.73049838  0.51552784  0.63281360    -0.87500
C966        C  0.74146414  0.50062315  0.81820961     0.84800
C967        C  0.79986873  0.00848218  0.86878666     1.06300
H968        H  0.74649630  0.49692507  0.72372971     0.38100
O969        O  0.76105414  0.52299403  0.71178771    -1.10100
O970        O  0.72887888  0.03877637  0.71522079    -0.66800
Ni971      Ni  0.70408399  0.99780578  0.75959519     1.26300
O972        O  0.77103515  0.50061272  0.79647769    -0.67000
O973        O  0.66849065  0.97736283  0.72033165    -0.79300
C974        C  0.66246835  0.05953877  0.79888310     0.84200
O975        O  0.67601566  0.04666317  0.76556128    -0.66500
Ni976      Ni  0.77854120  0.50862010  0.65710412     1.27400
Ni977      Ni  0.76828450  0.96526183  0.79716357     1.26100
H978        H  0.75406247  0.04187920  0.78743689     0.38700
C979        C  0.89027014  0.28339483  0.88159989     0.79900
N980        N  0.88624842  0.23894185  0.89180278    -0.78400
C981        C  0.90968874  0.21123018  0.87697433     0.82300
N982        N  0.93811044  0.22783653  0.85155095    -0.78400
C983        C  0.94302282  0.27251953  0.84033310     0.82400
N984        N  0.91838449  0.30072775  0.85475909    -0.80100
C985        C  0.88762140  0.00728349  0.92780063     0.79900
N986        N  0.89787796  0.05150375  0.92226569    -0.78400
C987        C  0.87667978  0.08059676  0.90209231     0.82300
N988        N  0.84435266  0.06582617  0.88693498    -0.78400
C989        C  0.83320819  0.02171348  0.89148099     0.82400
N990        N  0.89125469  0.56525930  0.85358145    -0.80100
C991        C  0.77248778  0.08264352  0.66966568     0.79900
N992        N  0.80914567  0.09295319  0.66186531    -0.78400
C993        C  0.82111999  0.13323707  0.64112327     0.82300
N994        N  0.79624900  0.16236518  0.62807878    -0.78400
C995        C  0.75990025  0.15224340  0.63447354     0.82400
N996        N  0.74812233  0.11257618  0.65557723    -0.80100
C997        C  0.98005299  0.22917542  0.60960077     0.79900
N998        N  0.94469226  0.21565426  0.62099813    -0.78400
C999        C  0.92786860  0.17814900  0.60631071     0.82300
N1000       N  0.94652797  0.15460055  0.57925511    -0.78400
C1001       C  0.98168218  0.16680728  0.56627738     0.82400
N1002       N  0.45483569  0.10232524  0.67073400    -0.80100
O1003       O  0.54589310  0.16576005  0.84258165    -0.81300
O1004       O  0.97775184  0.39617477  0.72852221    -0.65900
O1005       O  0.02679931  0.28961349  0.73361604    -1.12500
C1006       C  0.52651892  0.25478522  0.69799146     1.05600
O1007       O  0.95599173  0.37714671  0.66756759    -0.79100
O1008       O  0.98200659  0.30718028  0.62438106    -0.66700
Ni1009     Ni  0.50132845  0.17284327  0.87682036     1.34900
C1010       C  0.99759427  0.27039687  0.62843232     0.84400
O1011       O  0.97282642  0.32273838  0.78533275    -0.79700
O1012       O  0.00180100  0.26311412  0.81218302    -0.90000
C1013       C  0.95313201  0.39778140  0.70155929     0.83900
O1014       O  0.51916321  0.23317790  0.88818849    -0.68200
O1015       O  0.49883921  0.27891034  0.69723542    -0.87500
C1016       C  0.50436886  0.27038719  0.88352846     0.84800
C1017       C  0.97452291  0.28780647  0.81124426     1.06300
H1018       H  0.49260276  0.27730854  0.78285857     0.38100
O1019       O  0.47526003  0.25327264  0.77665867    -1.10100
O1020       O  0.46750099  0.16376021  0.74273568    -0.66800
Ni1021     Ni  0.50039919  0.20033800  0.77612611     1.26300
O1022       O  0.03479318  0.37882237  0.76741552    -0.67000
O1023       O  0.52906642  0.22050190  0.72451679    -0.79300
C1024       C  0.54916067  0.14557455  0.80831245     0.84200
O1025       O  0.52471372  0.14719781  0.78116403    -0.66500
Ni1026     Ni  0.99997555  0.36842910  0.63329740     1.27400
Ni1027     Ni  0.00169269  0.34269132  0.73388468     1.26100
H1028       H  0.00939580  0.26573285  0.72701309     0.38700
C1029       C  0.72764539  0.45825665  0.84297375     0.79900
N1030       N  0.75251715  0.42951960  0.85781792    -0.78400
C1031       C  0.74154138  0.39071883  0.88063167     0.82300
N1032       N  0.70536685  0.38000323  0.88789103    -0.78400
C1033       C  0.67993024  0.40798760  0.87400650     0.82400
N1034       N  0.69113807  0.44760982  0.85153444    -0.80100
C1035       C  0.51877052  0.37280539  0.94651370     0.79900
N1036       N  0.55432008  0.38478393  0.93514682    -0.78400
C1037       C  0.57370512  0.36122686  0.90885706     0.82300
N1038       N  0.55728975  0.32391154  0.89347165    -0.78400
C1039       C  0.52165181  0.31065277  0.90350630     0.82400
N1040       N  0.04663024  0.44010401  0.83970252    -0.80100
O1041       O  0.58289215  0.10958454  0.88869700    -0.81300
O1042       O  0.91847119  0.39946886  0.55598692    -0.65900
O1043       O  0.97387238  0.00087772  0.00743368    -1.12500
C1044       C  0.54559026  0.97823973  0.62973097     1.05600
O1045       O  0.92139388  0.43165465  0.61788264    -0.79100
O1046       O  0.99043846  0.09221844  0.55952627    -0.66700
Ni1047     Ni  0.53098012  0.09838235  0.87406345     1.34900
C1048       C  0.00098681  0.13112164  0.54442733     0.84400
O1049       O  0.91048317  0.95766954  0.98348024    -0.79700
O1050       O  0.94755215  0.98930472  0.92986870    -0.90000
C1051       C  0.90753490  0.40164267  0.59450531     0.83900
O1052       O  0.51249554  0.44736344  0.95614827    -0.68200
O1053       O  0.55673520  0.56328559  0.57613004    -0.87500
C1054       C  0.49874135  0.40849954  0.96700979     0.84800
C1055       C  0.91589630  0.97985281  0.94706613     1.06300
H1056       H  0.54652873  0.51315567  0.50037551     0.38100
O1057       O  0.53039873  0.53721224  0.50128429    -1.10100
O1058       O  0.47059332  0.03718911  0.58218435    -0.66800
Ni1059     Ni  0.50615456  0.00432622  0.55643490     1.26300
O1060       O  0.03558917  0.50713968  0.92865563    -0.67000
O1061       O  0.53445650  0.00984503  0.60607900    -0.79300
C1062       C  0.59633346  0.13920127  0.91295039     0.84200
O1063       O  0.58389017  0.14118754  0.95086767    -0.66500
Ni1064     Ni  0.97344760  0.44346323  0.62970358     1.27400
Ni1065     Ni  0.94662218  0.94820365  0.02753362     1.26100
H1066       H  0.95769963  0.02479589  0.00815377     0.38700
C1067       C  0.58493132  0.13514166  0.79195039     0.79900
N1068       N  0.60032596  0.16706392  0.76379139    -0.78400
C1069       C  0.63575944  0.16799218  0.75280732     0.82300
N1070       N  0.65462169  0.13238306  0.76518330    -0.78400
C1071       C  0.63947760  0.09789840  0.79135163     0.82400
N1072       N  0.60440344  0.09967624  0.80634798    -0.80100
C1073       C  0.62712602  0.17134078  0.89601572     0.79900
N1074       N  0.62671487  0.18763989  0.85454122    -0.78400
C1075       C  0.65448589  0.21568004  0.83705365     0.82300
N1076       N  0.68364927  0.22506978  0.86012554    -0.78400
C1077       C  0.68519146  0.20947125  0.90114457     0.82400
N1078       N  0.65648263  0.18337562  0.92011281    -0.80100
O1079       O  0.74719248  0.22794904  0.90030588    -0.81300
O1080       O  0.78849509  0.30137916  0.55526264    -0.65900
O1081       O  0.78951448  0.27844068  0.95147877    -1.12500
C1082       C  0.64171642  0.23640268  0.61214629     1.05600
O1083       O  0.75695939  0.31443416  0.61365768    -0.79100
O1084       O  0.74320144  0.22604934  0.62880490    -0.66700
Ni1085     Ni  0.78910221  0.26937046  0.89222778     1.34900
C1086       C  0.73464715  0.18624936  0.61991181     0.84400
O1087       O  0.85993337  0.31830513  0.93556521    -0.79700
O1088       O  0.83146188  0.30924982  0.87664879    -0.90000
C1089       C  0.78547874  0.31885808  0.58998535     0.83900
O1090       O  0.75876503  0.31755934  0.88570640    -0.68200
O1091       O  0.67002696  0.23714095  0.63432260    -0.87500
C1092       C  0.76745157  0.35745562  0.89433965     0.84800
C1093       C  0.86061332  0.30883604  0.89718439     1.06300
H1094       H  0.70473320  0.29150728  0.54457859     0.38100
O1095       O  0.71450774  0.26635259  0.56044302    -1.10100
O1096       O  0.70673263  0.17635926  0.59737170    -0.66800
Ni1097     Ni  0.68905829  0.21169853  0.54714264     1.26300
O1098       O  0.79635177  0.36803430  0.91522484    -0.67000
O1099       O  0.64407075  0.22622185  0.57401621    -0.79300
C1100       C  0.71770670  0.22625471  0.92221288     0.84200
O1101       O  0.71390000  0.24695729  0.95507118    -0.66500
Ni1102     Ni  0.71384382  0.27517039  0.61992721     1.27400
Ni1103     Ni  0.81597801  0.33275811  0.96445791     1.26100
H1104       H  0.79884794  0.25323757  0.96722571     0.38700
C1105       C  0.91743629  0.40739837  0.71851745     0.79900
N1106       N  0.89660122  0.44131383  0.70357192    -0.78400
C1107       C  0.86159264  0.44168479  0.71925120     0.82300
N1108       N  0.84762922  0.40673514  0.74575782    -0.78400
C1109       C  0.86781499  0.37230917  0.75814705     0.82400
N1110       N  0.90335702  0.37547704  0.74752838    -0.80100
C1111       C  0.87744072  0.36986363  0.61280530     0.79900
N1112       N  0.84690081  0.35973191  0.59023382    -0.78400
C1113       C  0.81837930  0.33460698  0.61022404     0.82300
N1114       N  0.82118208  0.31768453  0.65065315    -0.78400
C1115       C  0.85152169  0.32507584  0.67226458     0.82400
N1116       N  0.87927849  0.35258872  0.65392640    -0.80100
C1117       C  0.85172830  0.32934064  0.75135275    -0.13600
C1118       C  0.84959560  0.31435519  0.71726430    -0.15200
C1119       C  0.65743033  0.22560157  0.79197065    -0.13600
C1120       C  0.65391312  0.21020070  0.75821625    -0.15200
C1121       C  0.64135904  0.39417496  0.88369575    -0.13600
C1122       C  0.61059664  0.37865570  0.89455457    -0.15200
C1123       C  0.85993852  0.14628659  0.63188351    -0.13600
C1124       C  0.89092864  0.16119607  0.62115692    -0.15200
C1125       C  0.89035852  0.12601853  0.89324434    -0.13600
C1126       C  0.90166050  0.16425101  0.88541265    -0.15200
C1127       C  0.59656478  0.37896618  0.62204511    -0.13600
C1128       C  0.60811121  0.41730608  0.61589124    -0.15200
C1129       C  0.56288362  0.76926312  0.16773188     0.79900
N1130       N  0.56826474  0.81338981  0.15422605    -0.78400
C1131       C  0.59638138  0.82794867  0.12746053     0.82300
N1132       N  0.61900287  0.79874981  0.11365429    -0.78400
C1133       C  0.61442353  0.75484667  0.12627382     0.82400
N1134       N  0.58663723  0.73960862  0.15428007    -0.80100
C1135       C  0.64745018  0.47511240  0.14463232     0.79900
N1136       N  0.65876664  0.97511974  0.11617302    -0.78400
C1137       C  0.62764069  0.95869354  0.09950212     0.82300
N1138       N  0.60511360  0.98679559  0.08037923    -0.78400
C1139       C  0.58675903  0.48395783  0.12236125     0.82400
N1140       N  0.61043355  0.47294822  0.15417560    -0.80100
O1141       O  0.67221499  0.54176542  0.33042533    -0.81300
O1142       O  0.82174222  0.99103455  0.24265389    -0.65900
O1143       O  0.73985475  0.51318158  0.29504708    -1.12500
C1144       C  0.67585031  0.46813548  0.17733967     1.05600
O1145       O  0.82689027  0.99476795  0.17260949    -0.79100
O1146       O  0.77583101  0.49921242  0.18481728    -0.66700
Ni1147     Ni  0.72187545  0.52794552  0.34933746     1.34900
C1148       C  0.76016570  0.53509629  0.18800678     0.84400
O1149       O  0.80295357  0.48021215  0.33291562    -0.79700
O1150       O  0.76965671  0.52042696  0.37408872    -0.90000
C1151       C  0.83639514  0.97925504  0.20945170     0.83900
O1152       O  0.70576938  0.46807515  0.36941003    -0.68200
O1153       O  0.73008970  0.01825539  0.12833995    -0.87500
C1154       C  0.73973905  0.99852011  0.31614760     0.84800
C1155       C  0.79928833  0.50282469  0.36490907     1.06300
H1156       H  0.74438452  0.99606356  0.21959219     0.38100
O1157       O  0.75873659  0.02255145  0.20826066    -1.10100
O1158       O  0.73074989  0.53555130  0.21006150    -0.66800
Ni1159     Ni  0.70470468  0.49559115  0.25445979     1.26300
O1160       O  0.76857199  0.99885865  0.29303802    -0.67000
O1161       O  0.66894880  0.47594288  0.21528199    -0.79300
C1162       C  0.66269378  0.55708649  0.29354176     0.84200
O1163       O  0.67724720  0.54512811  0.26032921    -0.66500
Ni1164     Ni  0.77746259  0.00989607  0.15359271     1.27400
Ni1165     Ni  0.76818914  0.46196868  0.29201579     1.26100
H1166       H  0.75463872  0.53908130  0.28317585     0.38700
C1167       C  0.88699670  0.78021617  0.37587113     0.79900
N1168       N  0.88215710  0.73559482  0.38499716    -0.78400
C1169       C  0.90550760  0.70781425  0.37002352     0.82300
N1170       N  0.93447116  0.72449213  0.34555558    -0.78400
C1171       C  0.93997159  0.76928730  0.33536182     0.82400
N1172       N  0.91562000  0.79758716  0.34997711    -0.80100
C1173       C  0.88698919  0.50441328  0.42494693     0.79900
N1174       N  0.89661506  0.54874052  0.41812977    -0.78400
C1175       C  0.87503041  0.57672771  0.39706022     0.82300
N1176       N  0.84299981  0.56079037  0.38224675    -0.78400
C1177       C  0.83243143  0.51663318  0.38780952     0.82400
N1178       N  0.88858504  0.06771395  0.34793722    -0.80100
C1179       C  0.77451275  0.57734987  0.16321528     0.79900
N1180       N  0.81112385  0.58745614  0.15454097    -0.78400
C1181       C  0.82270620  0.62714214  0.13228168     0.82300
N1182       N  0.79757626  0.65565541  0.11875420    -0.78400
C1183       C  0.76138813  0.64548943  0.12612145     0.82400
N1184       N  0.75001133  0.60669418  0.14869778    -0.80100
C1185       C  0.98028313  0.72733198  0.10538830     0.79900
N1186       N  0.94464349  0.71335440  0.11489983    -0.78400
C1187       C  0.92885048  0.67586041  0.09905247     0.82300
N1188       N  0.94882486  0.65292246  0.07284507    -0.78400
C1189       C  0.98434789  0.66556602  0.06204282     0.82400
N1190       N  0.45724632  0.60383272  0.16558437    -0.80100
O1191       O  0.54529547  0.66326540  0.34018123    -0.81300
O1192       O  0.97666312  0.89370359  0.22557279    -0.65900
O1193       O  0.02512677  0.78669822  0.23135136    -1.12500
C1194       C  0.53121082  0.75561170  0.19690965     1.05600
O1195       O  0.95530107  0.87505854  0.16437920    -0.79100
O1196       O  0.98153209  0.80481593  0.12135651    -0.66700
Ni1197     Ni  0.50039072  0.67340306  0.37300203     1.34900
C1198       C  0.99700867  0.76799934  0.12550459     0.84400
O1199       O  0.97079639  0.82002091  0.28189237    -0.79700
O1200       O  0.99917703  0.76007545  0.30915938    -0.90000
C1201       C  0.95216037  0.89564243  0.19848316     0.83900
O1202       O  0.51818614  0.73474731  0.38177900    -0.68200
O1203       O  0.50482813  0.78159331  0.19589828    -0.87500
C1204       C  0.50186608  0.77108988  0.37875979     0.84800
C1205       C  0.97198177  0.78481363  0.30752231     1.06300
H1206       H  0.49393922  0.77672675  0.28064372     0.38100
O1207       O  0.47667415  0.75323567  0.27264927    -1.10100
O1208       O  0.46853555  0.66493239  0.23795369    -0.66800
Ni1209     Ni  0.50135176  0.69985773  0.27269787     1.26300
O1210       O  0.03313331  0.87585348  0.26530641    -0.67000
O1211       O  0.53149809  0.72001212  0.22224215    -0.79300
C1212       C  0.54861626  0.64314962  0.30580785     0.84200
O1213       O  0.52457172  0.64588183  0.27820118    -0.66500
Ni1214     Ni  0.99988295  0.86570038  0.13061617     1.27400
Ni1215     Ni  0.00034967  0.83997290  0.23112752     1.26100
H1216       H  0.00768265  0.76296958  0.22454820     0.38700
C1217       C  0.72589044  0.95557103  0.34013290     0.79900
N1218       N  0.75032893  0.92551430  0.35348849    -0.78400
C1219       C  0.73879703  0.88606229  0.37507480     0.82300
N1220       N  0.70261015  0.87626054  0.38280357    -0.78400
C1221       C  0.67773434  0.90563896  0.37048780     0.82400
N1222       N  0.68942465  0.94569286  0.34922638    -0.80100
C1223       C  0.51664538  0.87409424  0.44243068     0.79900
N1224       N  0.55227502  0.88528667  0.43126643    -0.78400
C1225       C  0.57126849  0.86153767  0.40486884     0.82300
N1226       N  0.55449036  0.82470503  0.38913350    -0.78400
C1227       C  0.51874141  0.81196123  0.39877478     0.82400
N1228       N  0.04403836  0.93764874  0.33751475    -0.80100
O1229       O  0.58033190  0.60708638  0.38804494    -0.81300
O1230       O  0.91695101  0.89885077  0.05582850    -0.65900
O1231       O  0.97326217  0.50171064  0.50624451    -1.12500
C1232       C  0.54625314  0.48213166  0.12397325     1.05600
O1233       O  0.91950135  0.93070914  0.11765885    -0.79100
O1234       O  0.99121821  0.59138322  0.05034853    -0.66700
Ni1235     Ni  0.52776262  0.59660873  0.37818619     1.34900
C1236       C  0.00491000  0.63064636  0.04107890     0.84400
O1237       O  0.91055783  0.45712125  0.48255342    -0.79700
O1238       O  0.94746190  0.48866490  0.42864839    -0.90000
C1239       C  0.90540887  0.90093917  0.09412205     0.83900
O1240       O  0.51008842  0.94923334  0.44956293    -0.68200
O1241       O  0.55159413  0.04216758  0.07425872    -0.87500
C1242       C  0.49770415  0.91055115  0.46346191     0.84800
C1243       C  0.91576809  0.47845148  0.44558750     1.06300
H1244       H  0.54171154  0.01585105  0.99603285     0.38100
O1245       O  0.52560788  0.03986609  0.99664201    -1.10100
O1246       O  0.46688882  0.53440787  0.07815469    -0.66800
Ni1247     Ni  0.50345603  0.50438306  0.05127679     1.26300
O1248       O  0.02881915  0.00450873  0.42534393    -0.67000
O1249       O  0.53361336  0.51204611  0.09924602    -0.79300
C1250       C  0.59568325  0.63618612  0.41128130     0.84200
O1251       O  0.58485639  0.63938077  0.44958882    -0.66500
Ni1252     Ni  0.97174842  0.94167242  0.13021236     1.27400
Ni1253     Ni  0.94706386  0.44875357  0.52677530     1.26100
H1254       H  0.95663530  0.52526119  0.50664055     0.38700
C1255       C  0.58435594  0.63237048  0.28906887     0.79900
N1256       N  0.59874228  0.66342578  0.25934083    -0.78400
C1257       C  0.63380430  0.66420899  0.24684603     0.82300
N1258       N  0.65269957  0.62837142  0.25810973    -0.78400
C1259       C  0.63868335  0.59465202  0.28590611     0.82400
N1260       N  0.60436412  0.59717325  0.30326279    -0.80100
C1261       C  0.62717807  0.66569814  0.39292584     0.79900
N1262       N  0.62641448  0.68186610  0.35141439    -0.78400
C1263       C  0.65518486  0.70741758  0.33294510     0.82300
N1264       N  0.68536476  0.71409208  0.35494000    -0.78400
C1265       C  0.68699156  0.69878699  0.39601019     0.82400
N1266       N  0.65747820  0.67561885  0.41604843    -0.80100
O1267       O  0.74774750  0.72162091  0.39372520    -0.81300
O1268       O  0.78828409  0.79365856  0.05553271    -0.65900
O1269       O  0.78813860  0.77269590  0.44528197    -1.12500
C1270       C  0.64286358  0.72757508  0.11133528     1.05600
O1271       O  0.75511227  0.80890988  0.11188928    -0.79100
O1272       O  0.74453881  0.71883311  0.12292932    -0.66700
Ni1273     Ni  0.78785596  0.76521468  0.38585516     1.34900
C1274       C  0.73590096  0.67933317  0.11306075     0.84400
O1275       O  0.85737861  0.81545472  0.43009976    -0.79700
O1276       O  0.82882664  0.80716477  0.37121025    -0.90000
C1277       C  0.78420120  0.81299330  0.08912999     0.83900
O1278       O  0.75586224  0.81221691  0.38037549    -0.68200
O1279       O  0.67180821  0.72564734  0.13203912    -0.87500
C1280       C  0.76432933  0.85230726  0.38886242     0.84800
C1281       C  0.85796283  0.80626365  0.39161456     1.06300
H1282       H  0.70362342  0.78603949  0.04387730     0.38100
O1283       O  0.71338604  0.76033555  0.05864272    -1.10100
O1284       O  0.70721796  0.66950372  0.09163208    -0.66800
Ni1285     Ni  0.68766958  0.70633165  0.04357378     1.26300
O1286       O  0.79296580  0.86297049  0.41001369    -0.67000
O1287       O  0.64351319  0.71892558  0.07276944    -0.79300
C1288       C  0.71891535  0.71660330  0.41681960     0.84200
O1289       O  0.71457874  0.73536915  0.45071890    -0.66500
Ni1290     Ni  0.71369261  0.76669201  0.11839999     1.27400
Ni1291     Ni  0.81272921  0.82770373  0.45897810     1.26100
H1292       H  0.79866906  0.74771893  0.46036424     0.38700
C1293       C  0.91636869  0.90625744  0.21544820     0.79900
N1294       N  0.89560428  0.94048567  0.20049334    -0.78400
C1295       C  0.86090904  0.94201980  0.21717607     0.82300
N1296       N  0.84729712  0.90802559  0.24497908    -0.78400
C1297       C  0.86714992  0.87330715  0.25733507     0.82400
N1298       N  0.90242152  0.87530668  0.24548603    -0.80100
C1299       C  0.87489457  0.86900755  0.11238344     0.79900
N1300       N  0.84496364  0.85676677  0.08935088    -0.78400
C1301       C  0.81644128  0.83134470  0.10946903     0.82300
N1302       N  0.81871790  0.81640518  0.15055636    -0.78400
C1303       C  0.84848459  0.82568611  0.17259458     0.82400
N1304       N  0.87611282  0.85322353  0.15399929    -0.80100
C1305       C  0.84992166  0.83063121  0.25169338    -0.13600
C1306       C  0.84652959  0.81562477  0.21772526    -0.15200
C1307       C  0.65699753  0.71901201  0.28805674    -0.13600
C1308       C  0.65246613  0.70578023  0.25350727    -0.15200
C1309       C  0.63919289  0.89289392  0.38040996    -0.13600
C1310       C  0.60828676  0.87813718  0.39103251    -0.15200
C1311       C  0.86136034  0.64104682  0.12305483    -0.13600
C1312       C  0.89201881  0.65744931  0.11273777    -0.15200
C1313       C  0.88769994  0.62232311  0.38723214    -0.13600
C1314       C  0.89784795  0.66081706  0.37868445    -0.15200
C1315       C  0.60486018  0.87441602  0.11637164    -0.13600
C1316       C  0.61568188  0.91263096  0.10750963    -0.15200
C1317       C  0.60025685  0.85447131  0.56023290     0.79900
N1318       N  0.59931470  0.89390687  0.53640437    -0.78400
C1319       C  0.62721948  0.90892475  0.50923252     0.82300
N1320       N  0.65507348  0.88296545  0.50434744    -0.78400
C1321       C  0.65649271  0.84339570  0.52733426     0.82400
N1322       N  0.62989088  0.82979980  0.55687433    -0.80100
C1323       C  0.66745671  0.51985128  0.61952702     0.79900
N1324       N  0.65848942  0.97915463  0.60835492    -0.78400
C1325       C  0.63442315  0.98710875  0.57712960     0.82300
N1326       N  0.59882631  0.98476769  0.58687218    -0.78400
C1327       C  0.61456362  0.53597894  0.58070010     0.82400
N1328       N  0.64690062  0.55050268  0.59796912    -0.80100
O1329       O  0.70302135  0.61733888  0.79258656    -0.81300
O1330       O  0.79680152  0.91511249  0.79059444    -0.65900
O1331       O  0.76762153  0.59053698  0.75684917    -1.12500
C1332       C  0.70079056  0.53246412  0.64277657     1.05600
O1333       O  0.79901557  0.92464116  0.71997689    -0.79100
O1334       O  0.79447913  0.56882204  0.63720595    -0.66700
Ni1335     Ni  0.74876153  0.59574160  0.81322302     1.34900
C1336       C  0.78112698  0.60626839  0.64190118     0.84400
O1337       O  0.83252625  0.56039572  0.79130389    -0.79700
O1338       O  0.79342011  0.57680294  0.84118653    -0.90000
C1339       C  0.81185455  0.90965357  0.75525545     0.83900
O1340       O  0.72531026  0.53622419  0.82116157    -0.68200
O1341       O  0.70774078  0.95993836  0.67094583    -0.87500
C1342       C  0.72019920  0.93473001  0.87169046     0.84800
C1343       C  0.82553676  0.56789019  0.82936884     1.06300
H1344       H  0.71975234  0.92108886  0.76471508     0.38100
O1345       O  0.73355894  0.94856799  0.75512414    -1.10100
O1346       O  0.75767808  0.61183867  0.67060206    -0.66800
Ni1347     Ni  0.73244829  0.57381663  0.71528439     1.26300
O1348       O  0.74245140  0.92789318  0.84200952    -0.67000
O1349       O  0.69741401  0.55498384  0.67489856    -0.79300
C1350       C  0.69005403  0.63125088  0.75697985     0.84200
O1351       O  0.70444493  0.62400026  0.72185876    -0.66500
Ni1352     Ni  0.75284025  0.94368316  0.69897510     1.27400
Ni1353     Ni  0.79650935  0.54076174  0.75207520     1.26100
H1354       H  0.78152060  0.61772779  0.74709618     0.38700
C1355       C  0.84213883  0.69105161  0.97114543     0.79900
N1356       N  0.84390982  0.65227032  0.99519885    -0.78400
C1357       C  0.87237840  0.62704268  0.99194063     0.82300
N1358       N  0.90039431  0.64162548  0.96460337    -0.78400
C1359       C  0.89952508  0.68098429  0.94037771     0.82400
N1360       N  0.86944977  0.70520395  0.94265344    -0.80100
C1361       C  0.91480321  0.55618692  0.88618836     0.79900
N1362       N  0.90091028  0.54329702  0.92520911    -0.78400
C1363       C  0.86529171  0.54121714  0.93448528     0.82300
N1364       N  0.84182345  0.55171837  0.90326453    -0.78400
C1365       C  0.85401550  0.56186610  0.86242785     0.82400
N1366       N  0.85526800  0.99158358  0.91139875    -0.80100
C1367       C  0.79420345  0.64463733  0.61228144     0.79900
N1368       N  0.82795344  0.64375225  0.59507479    -0.78400
C1369       C  0.84137471  0.67655362  0.56643208     0.82300
N1370       N  0.82143526  0.71095059  0.55495225    -0.78400
C1371       C  0.78732517  0.71235758  0.57088704     0.82400
N1372       N  0.77320491  0.67925430  0.60000842    -0.80100
C1373       C  0.94740887  0.64837715  0.67075207     0.79900
N1374       N  0.93355322  0.66982756  0.63600289    -0.78400
C1375       C  0.92941708  0.65034662  0.59946926     0.82300
N1376       N  0.93687138  0.60768819  0.59759992    -0.78400
C1377       C  0.95080983  0.58400766  0.63090152     0.82400
N1378       N  0.50101232  0.70009933  0.57887679    -0.80100
O1379       O  0.59572243  0.77574072  0.75087038    -0.81300
O1380       O  0.91624575  0.78649501  0.81661916    -0.65900
O1381       O  0.97498538  0.68622928  0.82571868    -1.12500
C1382       C  0.57362298  0.84461317  0.59573733     1.05600
O1383       O  0.90841179  0.76577390  0.75261584    -0.79100
O1384       O  0.94797672  0.71910707  0.69793411    -0.66700
Ni1385     Ni  0.54896052  0.76695154  0.77972876     1.34900
C1386       C  0.95517669  0.67853550  0.70604659     0.84400
O1387       O  0.91807253  0.71527922  0.87328278    -0.79700
O1388       O  0.95962300  0.67782560  0.91103580    -0.90000
C1389       C  0.90161663  0.79233716  0.78079940     0.83900
O1390       O  0.55631852  0.82211199  0.80629168    -0.68200
O1391       O  0.54167945  0.85941416  0.59201718    -0.87500
C1392       C  0.54890812  0.86259752  0.79821139     0.84800
C1393       C  0.92765738  0.69253143  0.90649711     1.06300
H1394       H  0.54475601  0.87974161  0.68117528     0.38100
O1395       O  0.52831807  0.85387356  0.67784729    -1.10100
O1396       O  0.52705880  0.76377593  0.64474160    -0.66800
Ni1397     Ni  0.55684710  0.80314667  0.67944489     1.26300
O1398       O  0.97597956  0.77570301  0.85988981    -0.67000
O1399       O  0.58439912  0.82370170  0.62939702    -0.79300
C1400       C  0.60220103  0.74856289  0.72313942     0.84200
O1401       O  0.58728434  0.75383682  0.68740948    -0.66500
Ni1402     Ni  0.95541742  0.77436024  0.72426802     1.27400
Ni1403     Ni  0.94650865  0.73698071  0.82421838     1.26100
H1404       H  0.95888921  0.66025291  0.82190767     0.38700
C1405       C  0.70721280  0.89719020  0.90233181     0.79900
N1406       N  0.72713934  0.86122285  0.91315843    -0.78400
C1407       C  0.71259202  0.82796753  0.94183419     0.82300
N1408       N  0.67856483  0.83011221  0.95802824    -0.78400
C1409       C  0.65955590  0.86587374  0.94785697     0.82400
N1410       N  0.67385472  0.89908161  0.92019481    -0.80100
C1411       C  0.55147766  0.95703818  0.87361468     0.79900
N1412       N  0.56510264  0.93362163  0.90726114    -0.78400
C1413       C  0.57331208  0.89117648  0.90557480     0.82300
N1414       N  0.56995259  0.87153466  0.86891132    -0.78400
C1415       C  0.55625840  0.89276266  0.83380282     0.82400
N1416       N  0.00162695  0.83831488  0.92693073    -0.80100
O1417       O  0.53559611  0.52980410  0.96863285    -0.81300
O1418       O  0.96932730  0.98276589  0.47319810    -0.65900
O1419       O  0.01999615  0.59459502  0.93910330    -1.12500
C1420       C  0.58851201  0.56495167  0.55903015     1.05600
O1421       O  0.95672602  0.02064412  0.52789726    -0.79100
O1422       O  0.96641522  0.50546656  0.64455971    -0.66700
Ni1423     Ni  0.49038024  0.50192675  0.95063521     1.34900
C1424       C  0.96309594  0.53987175  0.61900864     0.84400
O1425       O  0.96807848  0.52992270  0.91123754    -0.79700
O1426       O  0.97629984  0.59217285  0.86914731    -0.90000
C1427       C  0.95132986  0.98639505  0.50687911     0.83900
O1428       O  0.53787305  0.03614455  0.85992515    -0.68200
O1429       O  0.52300986  0.94654996  0.64486939    -0.87500
C1430       C  0.53824310  0.00085889  0.88512183     0.84800
C1431       C  0.95549889  0.55925347  0.88569493     1.06300
H1432       H  0.49997456  0.92512512  0.56698096     0.38100
O1433       O  0.48312486  0.94741486  0.57249533    -1.10100
O1434       O  0.53214120  0.63333502  0.51542905    -0.66800
Ni1435     Ni  0.55658765  0.59030082  0.47931176     1.26300
O1436       O  0.97256666  0.90504095  0.99332690    -0.67000
O1437       O  0.59465974  0.58152931  0.52076234    -0.79300
C1438       C  0.54032903  0.56126753  0.99325296     0.84200
O1439       O  0.52390200  0.56046262  0.02861418    -0.66500
Ni1440     Ni  0.00353466  0.03391721  0.55191358     1.27400
Ni1441     Ni  0.00008934  0.53674103  0.95772933     1.26100
H1442       H  0.00292961  0.61602961  0.94591258     0.38700
C1443       C  0.61211647  0.70414027  0.73858254     0.79900
N1444       N  0.58829208  0.68334414  0.76747717    -0.78400
C1445       C  0.59680048  0.64704266  0.79129830     0.82300
N1446       N  0.62988128  0.63121253  0.78704395    -0.78400
C1447       C  0.65432377  0.65057927  0.75775489     0.82400
N1448       N  0.64591876  0.68825018  0.73346349    -0.80100
C1449       C  0.56300348  0.59950093  0.97651285     0.79900
N1450       N  0.55569586  0.61241802  0.93611893    -0.78400
C1451       C  0.57991014  0.63805709  0.91195270     0.82300
N1452       N  0.61243691  0.65110929  0.92782834    -0.78400
C1453       C  0.62025942  0.63949443  0.96891071     0.82400
N1454       N  0.59561697  0.61250099  0.99356424    -0.80100
O1455       O  0.67865307  0.67471223  0.95622261    -0.81300
O1456       O  0.83673719  0.88046099  0.47809786    -0.65900
O1457       O  0.73152887  0.69674086  0.01406044    -1.12500
C1458       C  0.69145044  0.82373059  0.52577926     1.05600
O1459       O  0.82094541  0.85908017  0.54538233    -0.79100
O1460       O  0.77595942  0.78762716  0.56788414    -0.66700
Ni1461     Ni  0.73051898  0.69147509  0.95453006     1.34900
C1462       C  0.76790038  0.75006562  0.55365064     0.84400
O1463       O  0.80263457  0.72851493  0.01013898    -0.79700
O1464       O  0.78308275  0.70551681  0.94794405    -0.90000
C1465       C  0.84276882  0.87998971  0.51766188     0.83900
O1466       O  0.71874690  0.75143023  0.94057965    -0.68200
O1467       O  0.71610085  0.83808218  0.55044638    -0.87500
C1468       C  0.73071480  0.78758805  0.95504858     0.84800
C1469       C  0.80806933  0.71244220  0.97494649     1.06300
H1470       H  0.75758634  0.86245365  0.47421730     0.38100
O1471       O  0.76833191  0.83669776  0.48774602    -1.10100
O1472       O  0.75132556  0.74541713  0.51919061    -0.66800
Ni1473     Ni  0.74187071  0.78514345  0.47048557     1.26300
O1474       O  0.75233814  0.78890006  0.98590200    -0.67000
O1475       O  0.69744355  0.80121584  0.49436813    -0.79300
C1476       C  0.65595620  0.65587887  0.98424429     0.84200
O1477       O  0.66238976  0.65474036  0.02371811    -0.66500
Ni1478     Ni  0.76868077  0.84712918  0.54616760     1.27400
Ni1479     Ni  0.75922737  0.74636157  0.03373157     1.26100
H1480       H  0.74147638  0.66975172  0.02598015     0.38700
C1481       C  0.89052568  0.83654679  0.76619219     0.79900
N1482       N  0.85747210  0.85282810  0.77532105    -0.78400
C1483       C  0.84797435  0.89127380  0.75303038     0.82300
N1484       N  0.87060571  0.91101394  0.72200408    -0.78400
C1485       C  0.90280746  0.89470767  0.71365819     0.82400
N1486       N  0.91233125  0.85749957  0.73524773    -0.80100
C1487       C  0.92933501  0.94940100  0.52680673     0.79900
N1488       N  0.89917464  0.93035745  0.50890823    -0.78400
C1489       C  0.87671856  0.90053848  0.53343766     0.82300
N1490       N  0.88462729  0.89087893  0.57486167    -0.78400
C1491       C  0.91499807  0.90977396  0.59145118     0.82400
N1492       N  0.93670714  0.93927960  0.56773303    -0.80100
C1493       C  0.91832562  0.90487472  0.67304203    -0.13600
C1494       C  0.92045933  0.90611284  0.63544662    -0.15200
C1495       C  0.57504574  0.64003772  0.86787964    -0.13600
C1496       C  0.57870791  0.63866495  0.83064263    -0.15200
C1497       C  0.62143722  0.86348364  0.95488730    -0.13600
C1498       C  0.59300223  0.87111969  0.93929693    -0.15200
C1499       C  0.87882695  0.67847453  0.55574820    -0.13600
C1500       C  0.90845556  0.67044812  0.56722925    -0.15200
C1501       C  0.85721172  0.54909617  0.97736654    -0.13600
C1502       C  0.86395987  0.57996907  0.99856190    -0.15200
C1503       C  0.63713549  0.95566584  0.50780203    -0.13600
C1504       C  0.64315094  0.98241205  0.53359748    -0.15200
loop_ 
_geom_bond_atom_site_label_1 
_geom_bond_atom_site_label_2 
_geom_bond_distance 
_geom_bond_site_symmetry_2 
_ccdc_geom_bond_type 
C1            N2   1.361       .  A
C1            N6   1.376       .  A
C1           C66   1.490       .  S
N2            C3   1.352       .  A
C3            N4   1.347       .  A
C3          C187   1.433       .  S
N4            C5   1.353       .  A
C5            N6   1.374       .  A
C5          C142   1.475       .  S
C7           N12   1.387       .  A
C7          N384   1.365       .  A
C7           C16   1.493       .  S
N8            C9   1.351       .  A
N8          C383   1.356       .  A
C9           N10   1.351       .  A
C9          C188   1.434       .  S
N10         C387   1.358       .  A
C11          N12   1.377       .  A
C11         N386   1.348       .  A
C11         C104   1.487       .  S
O13         Ni19   1.985       .  S
O13          C34   1.281       .  A
O14        Ni413   1.870       .  S
O14          C23   1.258       .  A
O15         Ni19   1.927       .  S
O15         Ni37   1.930   1_545  S
O15         Ni31   1.917       .  S
O15          H38   0.966       .  S
C16          O33   1.267       .  A
C16         O401   1.283       .  A
O17         Ni36   1.984       .  S
O17          C23   1.281       .  A
O18        Ni412   1.935   1_545  S
O18          C20   1.270       .  A
Ni19         O22   1.952       .  S
Ni19         O24   1.912   1_545  S
C20          C51   1.504       .  S
C20          O30   1.277       .  A
O21         Ni37   1.914       .  S
O21          C27   1.270   1_565  A
O22          C27   1.282       .  A
C23         C167   1.480       .  S
O24         C402   1.275       .  A
O25         Ni36   1.954       .  S
O25         C392   1.282       .  A
C26          C89   1.493       .  S
C26          O32   1.278       .  A
C26         O400   1.266       .  A
C27          C49   1.477       .  S
H28          O29   0.966       .  S
O29         Ni36   1.924       .  S
O29        Ni413   1.913       .  S
O29        Ni407   1.922       .  S
O30         Ni31   1.963       .  S
Ni31         O35   1.869       .  S
Ni31         O33   1.921   1_545  S
Ni31        O405   1.904   1_545  S
O32        Ni413   1.962       .  S
C34         C131   1.481       .  S
C34          O35   1.256       .  A
Ni36        O394   1.918       .  S
Ni37        O390   1.919       .  S
Ni37        O408   1.931       .  S
Ni37        O405   1.923       .  S
C39          N40   1.348       .  A
C39          N44   1.376       .  A
C39         C153   1.470       .  S
N40          C41   1.341       .  A
C41          N42   1.350       .  A
C41         C186   1.422       .  S
N42          C43   1.360       .  A
C43          N44   1.378       .  A
C43          C77   1.490       .  S
C45          N46   1.354       .  A
C45         N426   1.376   1_545  A
C45         C115   1.483   1_545  S
N46          C47   1.341       .  A
C47          N48   1.345       .  A
C47         C185   1.423       .  S
N48          C49   1.355       .  A
C49         N426   1.382   1_545  A
N50         C421   1.375       .  A
N50         C425   1.385       .  A
C51          N52   1.377       .  A
C51          N56   1.369       .  A
N52          C53   1.374       .  A
C53          N54   1.357       .  A
C53         C183   1.473       .  S
N54          C55   1.360       .  A
C55          N56   1.362       .  A
C55         C146   1.482       .  S
C57          N58   1.370       .  A
C57         N814   1.388       .  A
C57          C70   1.520       .  S
N58          C59   1.365       .  A
C59          N60   1.358       .  A
C59         C184   1.474       .  S
N60          C61   1.368       .  A
C61         N814   1.382       .  A
C61         C108   1.522       .  S
N62         C809   1.392       .  A
N62         C813   1.391       .  A
O63         Ni69   1.983       .  S
O63          C84   1.288       .  A
O64         Ni87   1.876       .  S
O64          C73   1.250       .  A
O65         Ni87   1.895       .  S
O65        Ni821   1.872       .  S
O65        Ni833   1.935       .  S
O65          H88   0.967       .  S
C66          O83   1.287       .  A
C66          O75   1.287       .  A
O67         Ni86   1.983       .  S
O67          C73   1.289       .  A
O68         Ni86   1.956       .  S
O68          C70   1.278       .  A
Ni69         O74   1.955       .  S
Ni69        O824   1.965   1_455  S
Ni69        O817   1.899   1_455  S
C70         O832   1.275       .  A
O71         Ni87   1.961       .  S
O71          C77   1.286       .  A
O72        Ni821   1.931       .  S
O72          C77   1.287       .  A
C73         C165   1.466       .  S
O74          C76   1.279       .  A
O75        Ni838   1.931   1_455  S
C76          C99   1.521       .  S
C76         O834   1.276   1_455  A
H78          O79   0.966       .  S
O79         Ni81   1.893   1_655  S
O79        Ni839   1.933       .  S
O79        Ni838   1.874       .  S
O80         Ni81   1.952   1_655  S
O80         C822   1.268       .  A
Ni81         O85   1.879       .  S
Ni81         O83   1.961       .  S
Ni81        O817   1.911   1_455  S
O82         Ni87   1.952       .  S
O82         C828   1.269       .  A
C84         C127   1.469       .  S
C84          O85   1.252       .  A
Ni86        O827   1.963       .  S
Ni86        O831   1.897       .  S
Ni87        O831   1.908       .  S
C89          N90   1.364       .  A
C89          N94   1.377       .  A
N90          C91   1.356       .  A
C91          N92   1.358       .  A
C91         C152   1.467       .  S
N92          C93   1.354       .  A
C93          N94   1.373       .  A
C93         C181   1.468       .  S
C95          N96   1.365       .  A
C95         N852   1.383       .  A
C95         C114   1.524   1_455  S
N96          C97   1.355       .  A
C97          N98   1.364       .  A
C97         C182   1.469       .  S
N98          C99   1.370       .  A
C99         N852   1.391       .  A
N100        C847   1.391       .  A
N100        C851   1.393       .  A
O101       Ni107   1.973       .  S
O101        C122   1.293       .  A
O102       Ni689   1.923       .  S
O102        C111   1.282       .  A
O103       Ni125   1.873   1_545  S
O103       Ni859   1.850       .  S
O103      Ni1059   1.900       .  S
O103        H126   0.967       .  S
C104        O121   1.261   1_565  A
C104        O489   1.282       .  A
O105       Ni124   1.974       .  S
O105        C111   1.292       .  A
O106       Ni500   1.878       .  S
O106        C108   1.261       .  A
Ni107       O862   1.985   1_455  S
Ni107       O488   1.991       .  S
Ni107       O855   1.903       .  S
C108        O870   1.297       .  A
O109       Ni125   1.961       .  S
O109        C115   1.293       .  A
O110       Ni859   1.928   1_565  S
O110        C115   1.286       .  A
C111        C171   1.493       .  S
O112       Ni483   1.879   1_455  S
O112        C114   1.263   1_455  A
O113       Ni876   1.933       .  S
O113        C480   1.274       .  A
C114        O872   1.298       .  A
H116        O117   0.969       .  S
O117      Ni1441   1.899   1_554  S
O117       Ni495   1.887   1_554  S
O117       Ni876   1.866       .  S
O118       Ni119   1.897   1_655  S
O118        C860   1.268       .  A
Ni119       O121   1.907       .  S
Ni119       O311   1.887       .  S
Ni119      O1043   1.901   1_455  S
Ni119       O493   1.892   1_445  S
O120       Ni501   1.899       .  S
O120        C866   1.268       .  A
C122        C133   1.498       .  S
C122        O123   1.285       .  A
O123       Ni307   1.931       .  S
Ni124       O482   1.987       .  S
Ni124       O865   1.981       .  S
Ni124       O869   1.912       .  S
Ni125       O666   1.928       .  S
Ni125       O496   2.031       .  S
Ni125      O1433   1.951       .  S
C127        N128   1.348       .  A
C127        N132   1.377       .  A
N128        C129   1.341       .  A
C129        N130   1.351       .  A
C129        C180   1.418       .  S
N130        C131   1.359       .  A
C131        N132   1.374       .  A
C133        N134   1.366       .  A
C133        N138   1.371       .  A
N134        C135   1.362       .  A
C135        N136   1.333       .  A
C135        C179   1.435       .  S
N136        C137   1.348       .  A
C137        N138   1.370       .  A
C137        C160   1.452       .  S
O139       Ni145   1.911       .  S
O139        C160   1.274       .  A
O140       Ni351   1.895       .  S
O140        C149   1.261       .  A
O141       Ni145   1.913       .  S
O141       Ni163   1.916       .  S
O141       Ni345   1.940       .  S
O141        H164   0.971       .  S
C142        O159   1.266       .  A
C142        O151   1.260       .  A
O143       Ni162   1.905       .  S
O143        C149   1.272       .  A
O144       Ni162   1.897       .  S
O144        C146   1.273       .  A
Ni145       O148   1.934       .  S
Ni145       O150   1.882       .  S
C146        O156   1.294       .  A
O147       Ni163   1.929       .  S
O147        C153   1.266       .  A
O148        C153   1.262       .  A
C149        C173   1.444       .  S
O150        C152   1.268       .  A
O151       Ni162   1.927       .  S
C152        O158   1.291       .  A
H154        O155   0.963       .  S
O155       Ni157   1.912       .  S
O155       Ni162   1.912       .  S
O155       Ni351   1.939       .  S
O156       Ni157   1.992       .  S
Ni157       O159   1.937       .  S
Ni157       O349   1.903       .  S
Ni157       O329   1.900       .  S
O158       Ni163   1.984       .  S
C160        O161   1.261       .  A
O161       Ni345   1.897       .  S
Ni163       O328   1.906       .  S
Ni163       O343   1.900       .  S
C165        N166   1.376       .  A
C165        N170   1.348       .  A
N166        C167   1.373       .  A
C167        N168   1.358       .  A
N168        C169   1.350       .  A
C169        N170   1.342       .  A
C169        C177   1.417       .  S
C171        N172   1.369       .  A
C171        N176   1.365       .  A
N172        C173   1.368       .  A
C173        N174   1.348       .  A
N174        C175   1.332       .  A
C175        N176   1.362       .  A
C175        C178   1.435       .  S
C177        C178   1.200       .  T
C179        C180   1.202       .  T
C181        C182   1.226       .  T
C183        C184   1.229       .  T
C185        C186   1.198       .  T
C187        C188   1.205       .  T
C189        N190   1.361       .  A
C189        N194   1.367       .  A
C189        C254   1.477       .  S
N190        C191   1.361       .  A
C191        N192   1.343       .  A
C191        C375   1.426       .  S
N192        C193   1.349       .  A
C193        N194   1.361       .  A
C193        C330   1.452       .  S
C195        N572   1.358   1_545  A
C195        N200   1.381       .  A
C195        C204   1.480       .  S
N196        C571   1.365       .  A
N196        C197   1.354       .  A
C197        N198   1.336       .  A
C197        C376   1.424       .  S
N198        C575   1.347       .  A
C199        N574   1.354   1_545  A
C199        N200   1.375       .  A
C199        C292   1.480       .  S
O201       Ni207   1.945       .  S
O201        C222   1.280       .  A
O202       Ni601   1.913       .  S
O202        C211   1.266       .  A
O203       Ni207   1.922       .  S
O203       Ni225   1.911       .  S
O203       Ni219   1.926       .  S
O203        H226   0.965       .  S
C204        O221   1.272       .  A
C204        O589   1.282       .  A
O205       Ni224   1.944       .  S
O205        C211   1.279       .  A
O206       Ni600   1.921       .  S
O206        C208   1.278       .  A
Ni207       O210   1.964       .  S
Ni207       O212   1.934       .  S
C208        C239   1.479       .  S
C208        O218   1.271       .  A
O209       Ni225   1.921       .  S
O209        C215   1.266       .  A
O210        C215   1.284       .  A
C211        C355   1.475       .  S
O212        C590   1.270   1_545  A
O213       Ni224   1.969       .  S
O213        C580   1.284       .  A
C214        C277   1.479       .  S
C214        O588   1.277       .  A
C214        O220   1.273       .  A
C215        C237   1.496       .  S
H216        O217   0.969       .  S
O217       Ni601   1.927       .  S
O217       Ni595   1.907       .  S
O217       Ni224   1.923       .  S
O218       Ni219   1.933       .  S
Ni219       O223   1.920       .  S
Ni219       O221   1.916       .  S
Ni219       O593   1.932       .  S
O220       Ni601   1.934       .  S
C222        C319   1.480       .  S
C222        O223   1.267       .  A
Ni224       O582   1.929       .  S
Ni225       O578   1.878   1_545  S
Ni225       O596   1.963   1_545  S
Ni225       O593   1.916       .  S
C227        N228   1.351       .  A
C227        N232   1.364       .  A
C227        C341   1.459       .  S
N228        C229   1.345       .  A
C229        N230   1.359       .  A
C229        C374   1.424       .  S
N230        C231   1.357       .  A
C231        N232   1.370       .  A
C231        C265   1.480       .  S
C233        N234   1.349       .  A
C233        N614   1.380       .  A
C233        C303   1.495       .  S
N234        C235   1.337       .  A
C235        N236   1.350       .  A
C235        C373   1.426       .  S
N236        C237   1.363       .  A
C237        N614   1.390       .  A
N238        C609   1.374       .  A
N238        C613   1.377       .  A
C239        N240   1.350       .  A
C239        N244   1.374       .  A
N240        C241   1.348       .  A
C241        N242   1.341       .  A
C241        C371   1.411       .  S
N242        C243   1.351       .  A
C243        N244   1.373       .  A
C243        C334   1.461       .  S
C245        N246   1.356       .  A
C245       N1002   1.393       .  A
C245        C258   1.511       .  S
N246        C247   1.342       .  A
C247        N248   1.336       .  A
C247        C372   1.414       .  S
N248        C249   1.351       .  A
C249       N1002   1.392       .  A
C249        C296   1.503       .  S
N250        C997   1.390       .  A
N250       C1001   1.383       .  A
O251       Ni257   1.932       .  S
O251        C272   1.276       .  A
O252       Ni275   1.912       .  S
O252        C261   1.263       .  A
O253      Ni1009   1.901       .  S
O253       Ni275   1.903       .  S
O253      Ni1021   1.917       .  S
O253        H276   0.967       .  S
C254        O271   1.275       .  A
C254        O263   1.288       .  A
O255       Ni274   1.934       .  S
O255        C261   1.275       .  A
O256       Ni274   1.918       .  S
O256        C258   1.273       .  A
Ni257      O1012   1.937       .  S
Ni257       O262   1.920       .  S
Ni257      O1005   1.876       .  S
C258       O1020   1.269       .  A
O259       Ni275   1.900       .  S
O259        C265   1.272       .  A
O260      Ni1009   1.970       .  S
O260        C265   1.290       .  A
C261        C353   1.453       .  S
O262        C264   1.274       .  A
O263      Ni1026   1.962   1_455  S
C264        C287   1.510       .  S
C264       O1022   1.270       .  A
H266        O267   0.962       .  S
O267      Ni1027   1.914       .  S
O267       Ni269   1.907       .  S
O267      Ni1026   1.903   1_455  S
O268       Ni269   1.969       .  S
O268       C1010   1.277   1_455  A
Ni269       O273   1.919       .  S
Ni269       O271   1.901       .  S
Ni269      O1005   1.933       .  S
O270       Ni275   1.961       .  S
O270       C1016   1.276       .  A
C272        C315   1.461       .  S
C272        O273   1.265       .  A
Ni274      O1015   1.940       .  S
Ni274      O1019   1.873       .  S
Ni275      O1019   1.933       .  S
C277        N278   1.373       .  A
C277        N282   1.353       .  A
N278        C279   1.371       .  A
C279        N280   1.350       .  A
C279        C340   1.458       .  S
N280        C281   1.340       .  A
C281        N282   1.351       .  A
C281        C369   1.411       .  S
C283        N284   1.350       .  A
C283       N1040   1.391       .  A
C283        C302   1.501       .  S
N284        C285   1.332       .  A
C285        N286   1.342       .  A
C285        C370   1.412       .  S
N286        C287   1.358       .  A
C287       N1040   1.394       .  A
N288       C1035   1.380       .  A
N288       C1039   1.387       .  A
O289       Ni295   1.922   1_455  S
O289        C310   1.272       .  A
O290       Ni501   1.885       .  S
O290        C299   1.260       .  A
O291      Ni1047   1.894       .  S
O291       Ni313   1.887       .  S
O291       Ni871   1.951       .  S
O291        H314   0.963       .  S
C292        O309   1.293       .  A
C292        O677   1.286       .  A
O293       Ni312   1.928       .  S
O293        C299   1.276       .  A
O294       Ni688   1.989   1_545  S
O294        C296   1.277       .  A
Ni295      O1050   1.929   1_545  S
Ni295       O676   1.878   1_645  S
Ni295      O1043   1.857   1_556  S
C296       O1058   1.269       .  A
O297       Ni313   1.904       .  S
O297        C303   1.258       .  A
O298      Ni1047   1.996       .  S
O298        C303   1.282       .  A
C299        C359   1.440       .  S
O300       Ni671   1.985       .  S
O300        C302   1.274       .  A
O301      Ni1064   1.982   1_455  S
O301        C668   1.281       .  A
C302       O1060   1.267       .  A
H304        O305   0.966   1_455  S
O305      Ni1253   1.953       .  S
O305       Ni683   1.888   1_655  S
O305      Ni1064   1.909       .  S
O306       Ni307   2.037       .  S
O306       C1048   1.301       .  A
Ni307       O309   1.960       .  S
Ni307       O855   1.949       .  S
Ni307       O681   1.870       .  S
O308       Ni689   2.037   1_556  S
O308       C1054   1.299       .  A
C310        C321   1.435       .  S
C310        O311   1.259   1_556  A
Ni312       O670   1.881       .  S
Ni312      O1053   1.938       .  S
Ni312      O1057   1.866       .  S
Ni313       O478   1.879   1_545  S
Ni313       O684   1.903       .  S
Ni313      O1245   1.903       .  S
C315        N316   1.343       .  A
C315        N320   1.377       .  A
N316        C317   1.335       .  A
C317        N318   1.346       .  A
C317        C368   1.399       .  S
N318        C319   1.353       .  A
C319        N320   1.377       .  A
C321        N322   1.342       .  A
C321        N326   1.365       .  A
N322        C323   1.331       .  A
C323        N324   1.351       .  A
C323        C367   1.404       .  S
N324        C325   1.359       .  A
C325        N326   1.366       .  A
C325        C348   1.471       .  S
O327       Ni333   1.943       .  S
O327        C348   1.281       .  A
O328        C337   1.271       .  A
O329       Ni333   1.899   1_554  S
O329       Ni351   1.894       .  S
O329        H352   0.967       .  S
C330        O347   1.266       .  A
C330        O339   1.280       .  A
O331       Ni350   1.938       .  S
O331        C337   1.280       .  A
O332       Ni350   1.907       .  S
O332        C334   1.267       .  A
Ni333       O336   1.952       .  S
Ni333       O338   1.904       .  S
C334        O344   1.268       .  A
O335       Ni351   1.891       .  S
O335        C341   1.267   1_554  A
O336        C341   1.281       .  A
C337        C361   1.472       .  S
O338        C340   1.266       .  A
O339       Ni350   1.943       .  S
C340        O346   1.268       .  A
H342        O343   0.964       .  S
O343       Ni345   1.895       .  S
O343       Ni350   1.899       .  S
O344       Ni345   1.929       .  S
Ni345       O347   1.889       .  S
O346       Ni351   1.933   1_556  S
C348        O349   1.271   1_556  A
C353        N354   1.374       .  A
C353        N358   1.341       .  A
N354        C355   1.374       .  A
C355        N356   1.354       .  A
N356        C357   1.346       .  A
C357        N358   1.332       .  A
C357        C365   1.399       .  S
C359        N360   1.368       .  A
C359        N364   1.342       .  A
N360        C361   1.368       .  A
C361        N362   1.358       .  A
N362        C363   1.349       .  A
C363        N364   1.330       .  A
C363        C366   1.402       .  S
C365        C366   1.186       .  T
C367        C368   1.187       .  T
C369        C370   1.189       .  T
C371        C372   1.190       .  T
C373        C374   1.199       .  T
C375        C376   1.200       .  T
C377        N378   1.358       .  A
C377        N382   1.372       .  A
C377        C442   1.484       .  S
N378        C379   1.359       .  A
C379        N380   1.343       .  A
C379        C563   1.425       .  S
N380        C381   1.349       .  A
C381        N382   1.367       .  A
C381        C518   1.460       .  S
C383        N388   1.376       .  A
C383        C392   1.478       .  S
N384        C385   1.352       .  A
C385        N386   1.337       .  A
C385        C564   1.426       .  S
C387        N388   1.373       .  A
C387        C480   1.484       .  S
O389       Ni395   1.937       .  S
O389        C410   1.277       .  A
O390        C399   1.266       .  A
O391       Ni395   1.921       .  S
O391       Ni413   1.904       .  S
O391       Ni407   1.924       .  S
O391        H414   0.966       .  S
C392        O409   1.270       .  A
O393       Ni412   1.936       .  S
O393        C399   1.278       .  A
O394        C396   1.276       .  A
Ni395       O398   1.966       .  S
Ni395       O400   1.924       .  S
C396        C427   1.474       .  S
C396        O406   1.272       .  A
O397       Ni413   1.917       .  S
O397        C403   1.266       .  A
O398        C403   1.283       .  A
C399        C543   1.474       .  S
O401       Ni412   1.960       .  S
C402        C465   1.471       .  S
C402        O408   1.273       .  A
C403        C425   1.492       .  S
H404        O405   0.963       .  S
O405       Ni412   1.919       .  S
O406       Ni407   1.929       .  S
Ni407       O411   1.912       .  S
Ni407       O409   1.911       .  S
C410        C507   1.471       .  S
C410        O411   1.265       .  A
C415        N416   1.348       .  A
C415        N420   1.362       .  A
C415        C529   1.451       .  S
N416        C417   1.341       .  A
C417        N418   1.360       .  A
C417        C562   1.425       .  S
N418        C419   1.360       .  A
C419        N420   1.369       .  A
C419        C453   1.478       .  S
C421        N422   1.347       .  A
C421        C491   1.485       .  S
N422        C423   1.336       .  A
C423        N424   1.354       .  A
C423        C561   1.424       .  S
N424        C425   1.365       .  A
C427        N428   1.353       .  A
C427        N432   1.370       .  A
N428        C429   1.352       .  A
C429        N430   1.340       .  A
C429        C559   1.412       .  S
N430        C431   1.349       .  A
C431        N432   1.367       .  A
C431        C522   1.451       .  S
C433        N434   1.356       .  A
C433       N1190   1.392       .  A
C433        C446   1.506       .  S
N434        C435   1.341       .  A
C435        N436   1.334       .  A
C435        C560   1.411       .  S
N436        C437   1.351       .  A
C437       N1190   1.391       .  A
C437        C484   1.500       .  S
N438       C1185   1.387   1_455  A
N438       C1189   1.380   1_455  A
O439       Ni445   1.931       .  S
O439        C460   1.276       .  A
O440       Ni463   1.917       .  S
O440        C449   1.265       .  A
O441      Ni1197   1.899       .  S
O441       Ni463   1.907       .  S
O441      Ni1209   1.911       .  S
O441        H464   0.964       .  S
C442        O459   1.274       .  A
C442        O451   1.291       .  A
O443       Ni462   1.929       .  S
O443        C449   1.274       .  A
O444       Ni462   1.919       .  S
O444        C446   1.273       .  A
Ni445      O1200   1.931   1_455  S
Ni445       O450   1.927       .  S
Ni445      O1193   1.876       .  S
C446       O1208   1.269       .  A
O447       Ni463   1.899       .  S
O447        C453   1.275       .  A
O448      Ni1197   1.968       .  S
O448        C453   1.290       .  A
C449        C541   1.459       .  S
O450        C452   1.275       .  A
O451      Ni1214   1.972   1_455  S
C452        C475   1.515       .  S
C452       O1210   1.270       .  A
H454        O455   0.965       .  S
O455      Ni1215   1.914       .  S
O455       Ni457   1.907       .  S
O455      Ni1214   1.902   1_455  S
O456       Ni457   1.965       .  S
O456       C1198   1.276   1_455  A
Ni457       O461   1.911       .  S
Ni457       O459   1.904       .  S
Ni457      O1193   1.929       .  S
O458       Ni463   1.970       .  S
O458       C1204   1.277       .  A
C460        C503   1.456       .  S
C460        O461   1.264       .  A
Ni462      O1203   1.932       .  S
Ni462      O1207   1.877       .  S
Ni463      O1207   1.931       .  S
C465        N466   1.367       .  A
C465        N470   1.353       .  A
N466        C467   1.365       .  A
C467        N468   1.351       .  A
C467        C528   1.449       .  S
N468        C469   1.341       .  A
C469        N470   1.351       .  A
C469        C557   1.412       .  S
C471        N472   1.350       .  A
C471       N1228   1.393       .  A
C471        C490   1.505   1_565  S
N472        C473   1.334       .  A
C473        N474   1.343       .  A
C473        C558   1.413       .  S
N474        C475   1.357       .  A
C475       N1228   1.395       .  A
N476       C1223   1.386       .  A
N476       C1227   1.393       .  A
O477       Ni483   1.919   1_455  S
O477        C498   1.272       .  A
O478        C487   1.260   1_556  A
O479      Ni1235   1.913       .  S
O479       Ni501   1.891       .  S
O479      Ni1435   1.943       .  S
O479        H502   0.965       .  S
C480        O497   1.283       .  A
O481       Ni500   1.912       .  S
O481        C487   1.270   1_545  A
O482        C484   1.274       .  A
Ni483      O1238   1.930       .  S
Ni483      O1231   1.853       .  S
C484       O1246   1.266       .  A
O485       Ni501   1.908       .  S
O485        C491   1.264       .  A
O486      Ni1235   1.978       .  S
O486        C491   1.281       .  A
C487        C547   1.423       .  S
O488        C490   1.277       .  A
O489      Ni1252   1.985   1_455  S
C490       O1248   1.270       .  A
H492        O493   0.965   1_455  S
O493      Ni1065   1.947       .  S
O493      Ni1252   1.904       .  S
O494       Ni495   2.038   1_554  S
O494       C1236   1.299       .  A
Ni495       O687   1.920       .  S
Ni495       O497   1.954   1_556  S
Ni495      O1419   1.945       .  S
O496       C1242   1.297       .  A
C498        C509   1.431       .  S
C498        O499   1.259       .  A
O499       Ni683   1.885       .  S
Ni500      O1241   1.919       .  S
Ni500      O1245   1.847   1_554  S
Ni501      O1057   1.901       .  S
C503        N504   1.344       .  A
C503        N508   1.373       .  A
N504        C505   1.336       .  A
C505        N506   1.345       .  A
C505        C556   1.401       .  S
N506        C507   1.353       .  A
C507        N508   1.372       .  A
C509        N510   1.342       .  A
C509        N514   1.363       .  A
N510        C511   1.332       .  A
C511        N512   1.352       .  A
C511        C555   1.407       .  S
N512        C513   1.359       .  A
C513        N514   1.364       .  A
C513        C536   1.469       .  S
O515       Ni521   1.937       .  S
O515        C536   1.278       .  A
O516       Ni727   1.899       .  S
O516        C525   1.270   1_556  A
O517       Ni521   1.905       .  S
O517       Ni539   1.898       .  S
O517       Ni721   1.900       .  S
O517        H540   0.966       .  S
C518        O535   1.268   1_554  A
C518        O527   1.278       .  A
O519       Ni538   1.931       .  S
O519        C525   1.277       .  A
O520       Ni538   1.899       .  S
O520        C522   1.264       .  A
Ni521       O524   1.946       .  S
Ni521       O526   1.898       .  S
C522        O532   1.267       .  A
O523       Ni539   1.884       .  S
O523        C529   1.265       .  A
O524        C529   1.279       .  A
C525        C549   1.461       .  S
O526        C528   1.264       .  A
O527       Ni538   1.944       .  S
C528        O534   1.266       .  A
H530        O531   0.963       .  S
O531       Ni727   1.909       .  S
O531       Ni533   1.896       .  S
O531       Ni538   1.906   1_556  S
O532       Ni533   1.923   1_554  S
Ni533       O725   1.892       .  S
Ni533       O535   1.899       .  S
Ni533       O705   1.940       .  S
O534       Ni539   1.920       .  S
C536        O537   1.271       .  A
O537       Ni721   1.902       .  S
Ni539       O704   1.895       .  S
Ni539       O719   1.936       .  S
C541        N542   1.376       .  A
C541        N546   1.346       .  A
N542        C543   1.375       .  A
C543        N544   1.351       .  A
N544        C545   1.342       .  A
C545        N546   1.336       .  A
C545        C553   1.399       .  S
C547        N548   1.360       .  A
C547        N552   1.342       .  A
N548        C549   1.361       .  A
C549        N550   1.359       .  A
N550        C551   1.351       .  A
C551        N552   1.331       .  A
C551        C554   1.405       .  S
C553        C554   1.186       .  T
C555        C556   1.188       .  T
C557        C558   1.190       .  T
C559        C560   1.189       .  T
C561        C562   1.199       .  T
C563        C564   1.200       .  T
C565        N566   1.364       .  A
C565        N570   1.378       .  A
C565        C630   1.495       .  S
N566        C567   1.355       .  A
C567        N568   1.341       .  A
C567        C751   1.426       .  S
N568        C569   1.347       .  A
C569        N570   1.374       .  A
C569        C706   1.470       .  S
C571        N576   1.387       .  A
C571        C580   1.495       .  S
N572        C573   1.349       .  A
C573        N574   1.341       .  A
C573        C752   1.427       .  S
C575        N576   1.377       .  A
C575        C668   1.488       .  S
O577       Ni583   1.987       .  S
O577        C598   1.282       .  A
O578        C587   1.258       .  A
O579       Ni583   1.924       .  S
O579       Ni601   1.925       .  S
O579       Ni595   1.915       .  S
O579        H602   0.969       .  S
C580        O597   1.266       .  A
O581       Ni600   1.995   1_565  S
O581        C587   1.283       .  A
O582        C584   1.268       .  A
Ni583       O586   1.953       .  S
Ni583       O588   1.919       .  S
C584        C615   1.495       .  S
C584        O594   1.277       .  A
O585       Ni601   1.918       .  S
O585        C591   1.272       .  A
O586        C591   1.282       .  A
C587        C731   1.492       .  S
O589       Ni600   1.954       .  S
C590        C653   1.502       .  S
C590        O596   1.278       .  A
C591        C613   1.481       .  S
H592        O593   0.966   1_565  S
O593       Ni600   1.927       .  S
O594       Ni595   1.959       .  S
Ni595       O599   1.878       .  S
Ni595       O597   1.918       .  S
C598        C695   1.485       .  S
C598        O599   1.258       .  A
C603        N604   1.351       .  A
C603        N608   1.376       .  A
C603        C717   1.479       .  S
N604        C605   1.346       .  A
C605        N606   1.353       .  A
C605        C750   1.432       .  S
N606        C607   1.362       .  A
C607        N608   1.378       .  A
C607        C641   1.494       .  S
C609        N610   1.356       .  A
C609        C679   1.482       .  S
N610        C611   1.348       .  A
C611        N612   1.351       .  A
C611        C749   1.432       .  S
N612        C613   1.357       .  A
C615        N616   1.376       .  A
C615        N620   1.365       .  A
N616        C617   1.373       .  A
C617        N618   1.356       .  A
C617        C747   1.469       .  S
N618        C619   1.360       .  A
C619        N620   1.357       .  A
C619        C710   1.473       .  S
C621        N622   1.370       .  A
C621       N1378   1.389       .  A
C621        C634   1.518       .  S
N622        C623   1.363       .  A
C623        N624   1.354       .  A
C623        C748   1.469       .  S
N624        C625   1.365       .  A
C625       N1378   1.382       .  A
C625        C672   1.521       .  S
N626       C1373   1.393       .  A
N626       C1377   1.393       .  A
O627       Ni633   1.985       .  S
O627        C648   1.289       .  A
O628       Ni651   1.886       .  S
O628        C637   1.254       .  A
O629      Ni1385   1.874       .  S
O629       Ni651   1.896       .  S
O629      Ni1397   1.934       .  S
O629        H652   0.967       .  S
C630        O647   1.288       .  A
C630        O639   1.287       .  A
O631       Ni650   1.986       .  S
O631        C637   1.290       .  A
O632       Ni650   1.952       .  S
O632        C634   1.279       .  A
Ni633      O1388   1.970   1_455  S
Ni633       O638   1.952       .  S
Ni633      O1381   1.898   1_455  S
C634       O1396   1.276       .  A
O635       Ni651   1.963       .  S
O635        C641   1.288       .  A
O636      Ni1385   1.934       .  S
O636        C641   1.288       .  A
C637        C729   1.476       .  S
O638        C640   1.278       .  A
O639      Ni1402   1.937   1_455  S
C640        C663   1.519       .  S
C640       O1398   1.277   1_455  A
H642        O643   0.965       .  S
O643      Ni1403   1.935       .  S
O643       Ni645   1.897   1_655  S
O643      Ni1402   1.876       .  S
O644       Ni645   1.952   1_655  S
O644       C1386   1.268       .  A
Ni645       O649   1.881       .  S
Ni645       O647   1.962       .  S
Ni645      O1381   1.913   1_455  S
O646       Ni651   1.959       .  S
O646       C1392   1.271       .  A
C648        C691   1.472       .  S
C648        O649   1.252       .  A
Ni650      O1391   1.964       .  S
Ni650      O1395   1.903       .  S
Ni651      O1395   1.916       .  S
C653        N654   1.367       .  A
C653        N658   1.376       .  A
N654        C655   1.361       .  A
C655        N656   1.360       .  A
C655        C716   1.478       .  S
N656        C657   1.357       .  A
C657        N658   1.374       .  A
C657        C745   1.472       .  S
C659        N660   1.367       .  A
C659       N1416   1.381       .  A
C659        C678   1.520   1_455  S
N660        C661   1.357       .  A
C661        N662   1.364       .  A
C661        C746   1.472       .  S
N662        C663   1.370       .  A
C663       N1416   1.388       .  A
N664       C1411   1.393       .  A
N664       C1415   1.393       .  A
O665       Ni671   1.977       .  S
O665        C686   1.292       .  A
O666        C675   1.284       .  A
O667      Ni1423   1.860   1_554  S
O667       Ni689   1.882       .  S
O667      Ni1247   1.896       .  S
O667        H690   0.968       .  S
C668        O685   1.262       .  A
O669       Ni688   1.971       .  S
O669        C675   1.293       .  A
O670        C672   1.264       .  A
Ni671      O1426   1.984   1_455  S
Ni671      O1419   1.916       .  S
C672       O1434   1.298       .  A
O673       Ni689   1.951   1_556  S
O673        C679   1.285       .  A
O674      Ni1423   1.938       .  S
O674        C679   1.278       .  A
C675        C735   1.496       .  S
O676        C678   1.262   1_455  A
O677      Ni1440   1.927       .  S
C678       O1436   1.298       .  A
H680        O681   0.966       .  S
O681       Ni877   1.900   1_455  S
O681      Ni1440   1.848       .  S
O682       Ni683   1.900   1_655  S
O682       C1424   1.269       .  A
Ni683       O685   1.910       .  S
Ni683      O1231   1.902   1_455  S
O684       C1430   1.270       .  A
C686        C697   1.493       .  S
C686        O687   1.281       .  A
Ni688      O1429   1.984       .  S
Ni688      O1433   1.901       .  S
Ni689       O869   1.944       .  S
C691        N692   1.348       .  A
C691        N696   1.378       .  A
N692        C693   1.342       .  A
C693        N694   1.352       .  A
C693        C744   1.417       .  S
N694        C695   1.359       .  A
C695        N696   1.376       .  A
C697        N698   1.365       .  A
C697        N702   1.369       .  A
N698        C699   1.362       .  A
C699        N700   1.331       .  A
C699        C743   1.434       .  S
N700        C701   1.347       .  A
C701        N702   1.368       .  A
C701        C724   1.445       .  S
O703       Ni709   1.907       .  S
O703        C724   1.273       .  A
O704        C713   1.260       .  A
O705       Ni709   1.916       .  S
O705       Ni727   1.911       .  S
O705        H728   0.964       .  S
C706        O723   1.265       .  A
C706        O715   1.263       .  A
O707       Ni726   1.912       .  S
O707        C713   1.274       .  A
O708       Ni726   1.887       .  S
O708        C710   1.268       .  A
Ni709       O712   1.932       .  S
Ni709       O714   1.898       .  S
C710        O720   1.291       .  A
O711       Ni727   1.941       .  S
O711        C717   1.269       .  A
O712        C717   1.262       .  A
C713        C737   1.451       .  S
O714        C716   1.271       .  A
O715       Ni726   1.935       .  S
C716        O722   1.289       .  A
H718        O719   0.963       .  S
O719       Ni721   1.916       .  S
O719       Ni726   1.916       .  S
O720       Ni721   1.984       .  S
Ni721       O723   1.927       .  S
O722       Ni727   1.982       .  S
C724        O725   1.260       .  A
C729        N730   1.380       .  A
C729        N734   1.346       .  A
N730        C731   1.378       .  A
C731        N732   1.360       .  A
N732        C733   1.353       .  A
C733        N734   1.341       .  A
C733        C741   1.418       .  S
C735        N736   1.371       .  A
C735        N740   1.366       .  A
N736        C737   1.370       .  A
C737        N738   1.347       .  A
N738        C739   1.332       .  A
C739        N740   1.362       .  A
C739        C742   1.434       .  S
C741        C742   1.201       .  T
C743        C744   1.200       .  T
C745        C746   1.228       .  T
C747        C748   1.226       .  T
C749        C750   1.204       .  T
C751        C752   1.201       .  T
C753        N754   1.362       .  A
C753        N758   1.367       .  A
C753        C818   1.480       .  S
N754        C755   1.361       .  A
C755        N756   1.341       .  A
C755        C939   1.426       .  S
N756        C757   1.348       .  A
C757        N758   1.362       .  A
C757        C894   1.450       .  S
C759       N1136   1.357   1_545  A
C759        N764   1.381       .  A
C759        C768   1.475       .  S
N760       C1135   1.365       .  A
N760        C761   1.354       .  A
C761        N762   1.335       .  A
C761        C940   1.424       .  S
N762       C1139   1.347       .  A
C763       N1138   1.355   1_545  A
C763        N764   1.375       .  A
C763        C856   1.481       .  S
O765       Ni771   1.941       .  S
O765        C786   1.279       .  A
O766      Ni1165   1.904       .  S
O766        C775   1.263       .  A
O767       Ni771   1.924       .  S
O767       Ni789   1.910       .  S
O767       Ni783   1.925       .  S
O767        H790   0.965       .  S
C768        O785   1.271       .  A
C768       O1153   1.282       .  A
O769       Ni788   1.941       .  S
O769        C775   1.278       .  A
O770      Ni1164   1.918       .  S
O770        C772   1.278       .  A
Ni771       O774   1.964       .  S
Ni771       O776   1.929       .  S
C772        C803   1.483       .  S
C772        O782   1.273       .  A
O773       Ni789   1.913       .  S
O773        C779   1.265       .  A
O774        C779   1.283       .  A
C775        C919   1.467       .  S
O776       C1154   1.268   1_545  A
O777       Ni788   1.971       .  S
O777       C1144   1.285       .  A
C778        C841   1.477       .  S
C778       O1152   1.276       .  A
C778        O784   1.272       .  A
C779        C801   1.490       .  S
H780        O781   0.966       .  S
O781      Ni1165   1.926       .  S
O781      Ni1159   1.905       .  S
O781       Ni788   1.926       .  S
O782       Ni783   1.941       .  S
Ni783       O787   1.917       .  S
Ni783       O785   1.913       .  S
Ni783      O1157   1.932       .  S
O784      Ni1165   1.935       .  S
C786        C883   1.478       .  S
C786        O787   1.266       .  A
Ni788      O1146   1.928       .  S
Ni789      O1142   1.877   1_545  S
Ni789      O1160   1.965   1_545  S
Ni789      O1157   1.911       .  S
C791        N792   1.349       .  A
C791        N796   1.364       .  A
C791        C905   1.455       .  S
N792        C793   1.343       .  A
C793        N794   1.360       .  A
C793        C938   1.426       .  S
N794        C795   1.359       .  A
C795        N796   1.368       .  A
C795        C829   1.479       .  S
C797        N798   1.346       .  A
C797       N1178   1.375       .  A
C797        C867   1.484       .  S
N798        C799   1.335       .  A
C799        N800   1.352       .  A
C799        C937   1.425       .  S
N800        C801   1.365       .  A
C801       N1178   1.387       .  A
N802       C1173   1.377       .  A
N802       C1177   1.383       .  A
C803        N804   1.350       .  A
C803        N808   1.375       .  A
N804        C805   1.347       .  A
C805        N806   1.340       .  A
C805        C935   1.411       .  S
N806        C807   1.351       .  A
C807        N808   1.375       .  A
C807        C898   1.461       .  S
C809        N810   1.356       .  A
C809        C822   1.509       .  S
N810        C811   1.342       .  A
C811        N812   1.335       .  A
C811        C936   1.413       .  S
N812        C813   1.352       .  A
C813        C860   1.500       .  S
O815       Ni821   1.925       .  S
O815        C836   1.273       .  A
O816       Ni839   1.909       .  S
O816        C825   1.264       .  A
O817       Ni839   1.900       .  S
O817        H840   0.962       .  S
C818        O835   1.278       .  A
C818        O827   1.290       .  A
O819       Ni838   1.927       .  S
O819        C825   1.274       .  A
O820       Ni838   1.921       .  S
O820        C822   1.273       .  A
Ni821       O826   1.917       .  S
O823       Ni839   1.904       .  S
O823        C829   1.275       .  A
O824        C829   1.289       .  A
C825        C917   1.450       .  S
O826        C828   1.272       .  A
C828        C851   1.508       .  S
H830        O831   0.964       .  S
O831       Ni833   1.904       .  S
O832       Ni833   1.963       .  S
Ni833       O837   1.923       .  S
Ni833       O835   1.908       .  S
O834       Ni839   1.966       .  S
C836        C879   1.459       .  S
C836        O837   1.266       .  A
C841        N842   1.373       .  A
C841        N846   1.349       .  A
N842        C843   1.372       .  A
C843        N844   1.352       .  A
C843        C904   1.458       .  S
N844        C845   1.342       .  A
C845        N846   1.347       .  A
C845        C933   1.411       .  S
C847        N848   1.352       .  A
C847        C866   1.501       .  S
N848        C849   1.335       .  A
C849        N850   1.341       .  A
C849        C934   1.415       .  S
N850        C851   1.356       .  A
O853       Ni859   1.924       .  S
O853        C874   1.273       .  A
O854      Ni1441   1.884   1_655  S
O854        C863   1.260   1_556  A
O855       Ni877   1.885   1_455  S
O855        H878   0.972   1_455  S
C856        O873   1.295       .  A
C856       O1241   1.286       .  A
O857       Ni876   1.921   1_655  S
O857        C863   1.276       .  A
O858      Ni1252   1.986   1_545  S
O858        C860   1.276       .  A
Ni859      O1240   1.884   1_545  S
O861       Ni877   1.904       .  S
O861        C867   1.257       .  A
O862        C867   1.280       .  A
C863        C923   1.439       .  S
O864      Ni1235   1.984       .  S
O864        C866   1.275       .  A
O865       C1232   1.281       .  A
H868        O869   0.964       .  S
O869      Ni1247   1.887       .  S
O870       Ni871   2.029   1_554  S
Ni871      O1063   1.928       .  S
Ni871       O873   1.966   1_556  S
Ni871      O1245   1.868       .  S
O872      Ni1253   2.032       .  S
C874        C885   1.426       .  S
C874        O875   1.258       .  A
O875      Ni1059   1.874       .  S
Ni876      O1234   1.882   1_455  S
Ni877      O1418   1.880   1_545  S
Ni877      O1248   1.902   1_655  S
C879        N880   1.345       .  A
C879        N884   1.375       .  A
N880        C881   1.335       .  A
C881        N882   1.345       .  A
C881        C932   1.400       .  S
N882        C883   1.353       .  A
C883        N884   1.375       .  A
C885        N886   1.341       .  A
C885        N890   1.362       .  A
N886        C887   1.331       .  A
C887        N888   1.350       .  A
C887        C931   1.403       .  S
N888        C889   1.358       .  A
C889        N890   1.362       .  A
C889        C912   1.461       .  S
O891       Ni897   1.930       .  S
O891        C912   1.277       .  A
O892      Ni1103   1.912       .  S
O892        C901   1.273   1_556  A
O893       Ni897   1.909       .  S
O893       Ni915   1.896       .  S
O893      Ni1097   1.910       .  S
O893        H916   0.965       .  S
C894        O911   1.264   1_554  A
C894        O903   1.280       .  A
O895       Ni914   1.935       .  S
O895        C901   1.280       .  A
O896       Ni914   1.905       .  S
O896        C898   1.267       .  A
Ni897       O900   1.947       .  S
Ni897       O902   1.897       .  S
C898        O908   1.269       .  A
O899       Ni915   1.891       .  S
O899        C905   1.265       .  A
O900        C905   1.277       .  A
C901        C925   1.475       .  S
O902        C904   1.264       .  A
O903       Ni914   1.950       .  S
C904        O910   1.269       .  A
H906        O907   0.967       .  S
O907      Ni1103   1.905       .  S
O907       Ni909   1.897       .  S
O907       Ni914   1.899   1_556  S
O908       Ni909   1.936   1_554  S
Ni909      O1101   1.902       .  S
Ni909       O911   1.879       .  S
Ni909      O1081   1.939       .  S
O910       Ni915   1.938       .  S
C912        O913   1.269       .  A
O913      Ni1097   1.899       .  S
Ni915      O1080   1.890       .  S
Ni915      O1095   1.939       .  S
C917        N918   1.370       .  A
C917        N922   1.344       .  A
N918        C919   1.371       .  A
C919        N920   1.352       .  A
N920        C921   1.345       .  A
C921        N922   1.335       .  A
C921        C929   1.397       .  S
C923        N924   1.370       .  A
C923        N928   1.342       .  A
N924        C925   1.369       .  A
C925        N926   1.359       .  A
N926        C927   1.348       .  A
C927        N928   1.327       .  A
C927        C930   1.403       .  S
C929        C930   1.186       .  T
C931        C932   1.186       .  T
C933        C934   1.190       .  T
C935        C936   1.190       .  T
C937        C938   1.200       .  T
C939        C940   1.199       .  T
C941        N942   1.361       .  A
C941        N946   1.381       .  A
C941       C1006   1.497       .  S
N942        C943   1.352       .  A
C943        N944   1.344       .  A
C943       C1127   1.427       .  S
N944        C945   1.349       .  A
C945        N946   1.379       .  A
C945       C1082   1.482       .  S
C947       N1324   1.366       .  A
C947        N952   1.387       .  A
C947        C956   1.495       .  S
N948       C1323   1.358       .  A
N948        C949   1.351       .  A
C949        N950   1.344       .  A
C949       C1128   1.428       .  S
N950       C1327   1.353       .  A
C951       N1326   1.347       .  A
C951        N952   1.376       .  A
C951       C1044   1.486       .  S
O953       Ni959   1.986       .  S
O953        C974   1.282       .  A
O954      Ni1353   1.872       .  S
O954        C963   1.258       .  A
O955       Ni959   1.923       .  S
O955       Ni977   1.927   1_545  S
O955       Ni971   1.917   1_545  S
O955        H978   0.963       .  S
C956        O973   1.267       .  A
C956       O1341   1.284       .  A
O957       Ni976   1.986       .  S
O957        C963   1.282       .  A
O958      Ni1352   1.934   1_545  S
O958        C960   1.269       .  A
Ni959       O962   1.949       .  S
Ni959       O964   1.919   1_545  S
C960        C991   1.504       .  S
C960        O970   1.277       .  A
O961       Ni977   1.915       .  S
O961        C967   1.271   1_565  A
O962        C967   1.281       .  A
C963       C1107   1.482       .  S
O964       C1342   1.277       .  A
O965       Ni976   1.955       .  S
O965       C1332   1.282       .  A
C966       C1029   1.497       .  S
C966       O1340   1.268       .  A
C966        O972   1.278       .  A
C967        C989   1.476       .  S
H968        O969   0.967       .  S
O969      Ni1353   1.914       .  S
O969      Ni1347   1.923       .  S
O969       Ni976   1.925       .  S
O970       Ni971   1.965   1_545  S
Ni971       O975   1.872   1_565  S
Ni971       O973   1.920       .  S
Ni971      O1345   1.906       .  S
O972      Ni1353   1.963       .  S
C974       C1071   1.483       .  S
C974        O975   1.257       .  A
Ni976      O1334   1.920       .  S
Ni977      O1330   1.917       .  S
Ni977      O1348   1.935       .  S
Ni977      O1345   1.927       .  S
C979        N980   1.348       .  A
C979        N984   1.376       .  A
C979       C1093   1.474       .  S
N980        C981   1.343       .  A
C981        N982   1.353       .  A
C981       C1126   1.427       .  S
N982        C983   1.362       .  A
C983        N984   1.379       .  A
C983       C1017   1.494       .  S
C985        N986   1.355       .  A
C985       N1366   1.374   1_545  A
C985       C1055   1.480   1_545  S
N986        C987   1.342       .  A
C987        N988   1.348       .  A
C987       C1125   1.428       .  S
N988        C989   1.357       .  A
C989       N1366   1.380   1_545  A
N990       C1361   1.379       .  A
N990       C1365   1.390       .  A
C991        N992   1.377       .  A
C991        N996   1.368       .  A
N992        C993   1.374       .  A
C993        N994   1.356       .  A
C993       C1123   1.474       .  S
N994        C995   1.360       .  A
C995        N996   1.362       .  A
C995       C1086   1.480       .  S
C997        N998   1.371       .  A
C997       C1010   1.524       .  S
N998        C999   1.365       .  A
C999       N1000   1.358       .  A
C999       C1124   1.476       .  S
N1000      C1001   1.368       .  A
C1001      C1048   1.528   1_655  S
O1003     Ni1009   1.984       .  S
O1003      C1024   1.289       .  A
O1004     Ni1027   1.883   1_655  S
O1004      C1013   1.253       .  A
O1005     Ni1027   1.898       .  S
O1005      H1028   0.966       .  S
C1006      O1023   1.287       .  A
C1006      O1015   1.289       .  A
O1007     Ni1026   1.977       .  S
O1007      C1013   1.287       .  A
O1008     Ni1026   1.956       .  S
O1008      C1010   1.279       .  A
Ni1009     O1014   1.948       .  S
O1011     Ni1027   1.961   1_655  S
O1011      C1017   1.287       .  A
O1012      C1017   1.288   1_455  A
C1013      C1105   1.466       .  S
O1014      C1016   1.277       .  A
C1016      C1039   1.514       .  S
H1018      O1019   0.964       .  S
O1019     Ni1021   1.896       .  S
O1020     Ni1021   1.955       .  S
Ni1021     O1025   1.881       .  S
Ni1021     O1023   1.962       .  S
O1022     Ni1027   1.954       .  S
C1024      C1067   1.469       .  S
C1024      O1025   1.253       .  A
C1029      N1030   1.365       .  A
C1029      N1034   1.377       .  A
N1030      C1031   1.357       .  A
C1031      N1032   1.360       .  A
C1031      C1092   1.474       .  S
N1032      C1033   1.356       .  A
C1033      N1034   1.374       .  A
C1033      C1121   1.472       .  S
C1035      N1036   1.368       .  A
C1035      C1054   1.521       .  S
N1036      C1037   1.357       .  A
C1037      N1038   1.363       .  A
C1037      C1122   1.473       .  S
N1038      C1039   1.370       .  A
O1041     Ni1047   1.984       .  S
O1041      C1062   1.296       .  A
O1042     Ni1253   1.925       .  S
O1042      C1051   1.284       .  A
O1043     Ni1065   1.878   1_545  S
O1043      H1066   0.965       .  S
C1044      O1061   1.258   1_565  A
C1044      O1429   1.280       .  A
O1045     Ni1064   1.970       .  S
O1045      C1051   1.292       .  A
O1046     Ni1440   1.881   1_655  S
O1046      C1048   1.262   1_655  A
Ni1047     O1428   1.989       .  S
O1049     Ni1065   1.957   1_556  S
O1049      C1055   1.291       .  A
O1050      C1055   1.283       .  A
C1051      C1111   1.492       .  S
O1052     Ni1423   1.878       .  S
O1052      C1054   1.262       .  A
O1053      C1420   1.277       .  A
H1056      O1057   0.968       .  S
O1057     Ni1435   1.887       .  S
O1058     Ni1059   1.902       .  S
Ni1059     O1061   1.907       .  S
Ni1059     O1433   1.887   1_545  S
O1060     Ni1441   1.895       .  S
C1062      C1073   1.503       .  S
C1062      O1063   1.283       .  A
Ni1064     O1422   1.990       .  S
Ni1065     O1230   1.934       .  S
Ni1065     O1436   2.029   1_554  S
C1067      N1068   1.347       .  A
C1067      N1072   1.377       .  A
N1068      C1069   1.342       .  A
C1069      N1070   1.351       .  A
C1069      C1120   1.417       .  S
N1070      C1071   1.359       .  A
C1071      N1072   1.374       .  A
C1073      N1074   1.364       .  A
C1073      N1078   1.375       .  A
N1074      C1075   1.362       .  A
C1075      N1076   1.332       .  A
C1075      C1119   1.434       .  S
N1076      C1077   1.347       .  A
C1077      N1078   1.374       .  A
C1077      C1100   1.456       .  S
O1079     Ni1085   1.916       .  S
O1079      C1100   1.274       .  A
O1080      C1089   1.259       .  A
O1081     Ni1085   1.912       .  S
O1081     Ni1103   1.918       .  S
O1081      H1104   0.960       .  S
C1082      O1099   1.269       .  A
C1082      O1091   1.264       .  A
O1083     Ni1102   1.910       .  S
O1083      C1089   1.273       .  A
O1084     Ni1102   1.895       .  S
O1084      C1086   1.270       .  A
Ni1085     O1088   1.934       .  S
Ni1085     O1090   1.889       .  S
C1086      O1096   1.289       .  A
O1087     Ni1103   1.937       .  S
O1087      C1093   1.267       .  A
O1088      C1093   1.262       .  A
C1089      C1113   1.445       .  S
O1090      C1092   1.271       .  A
O1091     Ni1102   1.939       .  S
C1092      O1098   1.294       .  A
H1094      O1095   0.968       .  S
O1095     Ni1097   1.913       .  S
O1095     Ni1102   1.918       .  S
O1096     Ni1097   1.984       .  S
Ni1097     O1099   1.940       .  S
O1098     Ni1103   1.988       .  S
C1100      O1101   1.261       .  A
C1105      N1106   1.376       .  A
C1105      N1110   1.347       .  A
N1106      C1107   1.374       .  A
C1107      N1108   1.360       .  A
N1108      C1109   1.352       .  A
C1109      N1110   1.340       .  A
C1109      C1117   1.417       .  S
C1111      N1112   1.369       .  A
C1111      N1116   1.366       .  A
N1112      C1113   1.368       .  A
C1113      N1114   1.346       .  A
N1114      C1115   1.332       .  A
C1115      N1116   1.363       .  A
C1115      C1118   1.433       .  S
C1117      C1118   1.200       .  T
C1119      C1120   1.200       .  T
C1121      C1122   1.228       .  T
C1123      C1124   1.229       .  T
C1125      C1126   1.202       .  T
C1127      C1128   1.201       .  T
C1129      N1130   1.363       .  A
C1129      N1134   1.376       .  A
C1129      C1194   1.491       .  S
N1130      C1131   1.354       .  A
C1131      N1132   1.342       .  A
C1131      C1315   1.426       .  S
N1132      C1133   1.348       .  A
C1133      N1134   1.373       .  A
C1133      C1270   1.467       .  S
C1135      N1140   1.387       .  A
C1135      C1144   1.494       .  S
N1136      C1137   1.346       .  A
C1137      N1138   1.341       .  A
C1137      C1316   1.427       .  S
C1139      N1140   1.376       .  A
C1139      C1232   1.488       .  S
O1141     Ni1147   1.991       .  S
O1141      C1162   1.282       .  A
O1142      C1151   1.258       .  A
O1143     Ni1147   1.923       .  S
O1143     Ni1165   1.925       .  S
O1143     Ni1159   1.912       .  S
O1143      H1166   0.967       .  S
C1144      O1161   1.264       .  A
O1145     Ni1164   1.995   1_565  S
O1145      C1151   1.283       .  A
O1146      C1148   1.267       .  A
Ni1147     O1150   1.955       .  S
Ni1147     O1152   1.914       .  S
C1148      C1179   1.500       .  S
C1148      O1158   1.280       .  A
O1149     Ni1165   1.915       .  S
O1149      C1155   1.271       .  A
O1150      C1155   1.283       .  A
C1151      C1295   1.493       .  S
O1153     Ni1164   1.951       .  S
C1154      C1217   1.500       .  S
C1154      O1160   1.278       .  A
C1155      C1177   1.478       .  S
H1156      O1157   0.967   1_565  S
O1157     Ni1164   1.925       .  S
O1158     Ni1159   1.969       .  S
Ni1159     O1163   1.875       .  S
Ni1159     O1161   1.914       .  S
C1162      C1259   1.488       .  S
C1162      O1163   1.259       .  A
C1167      N1168   1.350       .  A
C1167      N1172   1.373       .  A
C1167      C1281   1.470       .  S
N1168      C1169   1.344       .  A
C1169      N1170   1.352       .  A
C1169      C1314   1.427       .  S
N1170      C1171   1.361       .  A
C1171      N1172   1.375       .  A
C1171      C1205   1.487       .  S
C1173      N1174   1.356       .  A
C1173      C1243   1.487       .  S
N1174      C1175   1.343       .  A
C1175      N1176   1.346       .  A
C1175      C1313   1.427       .  S
N1176      C1177   1.355       .  A
C1179      N1180   1.379       .  A
C1179      N1184   1.364       .  A
N1180      C1181   1.376       .  A
C1181      N1182   1.355       .  A
C1181      C1311   1.473       .  S
N1182      C1183   1.358       .  A
C1183      N1184   1.357       .  A
C1183      C1274   1.470       .  S
C1185      N1186   1.371       .  A
C1185      C1198   1.518       .  S
N1186      C1187   1.365       .  A
C1187      N1188   1.356       .  A
C1187      C1312   1.474       .  S
N1188      C1189   1.367       .  A
C1189      C1236   1.521   1_655  S
O1191     Ni1197   1.991       .  S
O1191      C1212   1.291       .  A
O1192     Ni1215   1.885   1_655  S
O1192      C1201   1.253       .  A
O1193     Ni1215   1.896       .  S
O1193      H1216   0.965       .  S
C1194      O1211   1.287       .  A
C1194      O1203   1.286       .  A
O1195     Ni1214   1.991       .  S
O1195      C1201   1.290       .  A
O1196     Ni1214   1.952       .  S
O1196      C1198   1.278       .  A
Ni1197     O1202   1.956       .  S
O1199     Ni1215   1.956   1_655  S
O1199      C1205   1.286       .  A
O1200      C1205   1.286       .  A
C1201      C1293   1.479       .  S
O1202      C1204   1.280       .  A
C1204      C1227   1.524       .  S
H1206      O1207   0.968       .  S
O1207     Ni1209   1.897       .  S
O1208     Ni1209   1.951       .  S
Ni1209     O1213   1.883       .  S
Ni1209     O1211   1.962       .  S
O1210     Ni1215   1.955       .  S
C1212      C1255   1.476       .  S
C1212      O1213   1.254       .  A
C1217      N1218   1.366       .  A
C1217      N1222   1.376       .  A
N1218      C1219   1.361       .  A
C1219      N1220   1.358       .  A
C1219      C1280   1.475       .  S
N1220      C1221   1.356       .  A
C1221      N1222   1.373       .  A
C1221      C1309   1.466       .  S
C1223      N1224   1.365       .  A
C1223      C1242   1.527       .  S
N1224      C1225   1.355       .  A
C1225      N1226   1.362       .  A
C1225      C1310   1.467       .  S
N1226      C1227   1.368       .  A
O1229     Ni1235   1.971       .  S
O1229      C1250   1.291       .  A
O1230      C1239   1.284       .  A
O1231     Ni1253   1.871       .  S
O1231      H1254   0.967       .  S
C1232      O1249   1.263       .  A
O1233     Ni1252   1.979       .  S
O1233      C1239   1.293       .  A
O1234      C1236   1.263   1_655  A
O1237     Ni1253   1.966       .  S
O1237      C1243   1.294       .  A
O1238      C1243   1.284       .  A
C1239      C1299   1.505       .  S
O1240      C1242   1.264       .  A
H1244      O1245   0.966       .  S
O1246     Ni1247   1.896       .  S
Ni1247     O1439   1.884       .  S
Ni1247     O1249   1.910       .  S
C1250      C1261   1.493       .  S
C1250      O1251   1.281       .  A
O1251     Ni1435   1.921       .  S
C1255      N1256   1.348       .  A
C1255      N1260   1.381       .  A
N1256      C1257   1.342       .  A
C1257      N1258   1.350       .  A
C1257      C1308   1.416       .  S
N1258      C1259   1.358       .  A
C1259      N1260   1.378       .  A
C1261      N1262   1.365       .  A
C1261      N1266   1.370       .  A
N1262      C1263   1.362       .  A
C1263      N1264   1.330       .  A
C1263      C1307   1.434       .  S
N1264      C1265   1.347       .  A
C1265      N1266   1.369       .  A
C1265      C1288   1.445       .  S
O1267     Ni1273   1.906       .  S
O1267      C1288   1.272       .  A
O1268     Ni1479   1.898       .  S
O1268      C1277   1.260       .  A
O1269     Ni1273   1.908       .  S
O1269     Ni1291   1.912       .  S
O1269     Ni1473   1.940       .  S
O1269      H1292   0.965       .  S
C1270      O1287   1.265       .  A
C1270      O1279   1.260       .  A
O1271     Ni1290   1.914       .  S
O1271      C1277   1.274       .  A
O1272     Ni1290   1.891       .  S
O1272      C1274   1.271       .  A
Ni1273     O1276   1.926       .  S
Ni1273     O1278   1.899       .  S
C1274      O1284   1.292       .  A
O1275     Ni1291   1.938       .  S
O1275      C1281   1.268       .  A
O1276      C1281   1.260       .  A
C1277      C1301   1.453       .  S
O1278      C1280   1.274       .  A
O1279     Ni1290   1.930       .  S
C1280      O1286   1.291       .  A
H1282      O1283   0.965       .  S
O1283     Ni1479   1.936       .  S
O1283     Ni1285   1.918       .  S
O1283     Ni1290   1.912       .  S
O1284     Ni1285   1.983       .  S
Ni1285     O1477   1.906       .  S
Ni1285     O1287   1.931       .  S
Ni1285     O1457   1.902       .  S
O1286     Ni1291   1.983       .  S
C1288      O1289   1.261       .  A
O1289     Ni1473   1.896       .  S
Ni1291     O1456   1.906       .  S
Ni1291     O1471   1.903       .  S
C1293      N1294   1.382       .  A
C1293      N1298   1.347       .  A
N1294      C1295   1.379       .  A
C1295      N1296   1.359       .  A
N1296      C1297   1.351       .  A
C1297      N1298   1.341       .  A
C1297      C1305   1.417       .  S
C1299      N1300   1.374       .  A
C1299      N1304   1.366       .  A
N1300      C1301   1.373       .  A
C1301      N1302   1.347       .  A
N1302      C1303   1.331       .  A
C1303      N1304   1.363       .  A
C1303      C1306   1.435       .  S
C1305      C1306   1.200       .  T
C1307      C1308   1.200       .  T
C1309      C1310   1.225       .  T
C1311      C1312   1.229       .  T
C1313      C1314   1.201       .  T
C1315      C1316   1.201       .  T
C1317      N1318   1.358       .  A
C1317      N1322   1.367       .  A
C1317      C1382   1.478       .  S
N1318      C1319   1.359       .  A
C1319      N1320   1.344       .  A
C1319      C1503   1.425       .  S
N1320      C1321   1.350       .  A
C1321      N1322   1.363       .  A
C1321      C1458   1.453       .  S
C1323      N1328   1.378       .  A
C1323      C1332   1.481       .  S
N1324      C1325   1.354       .  A
C1325      N1326   1.337       .  A
C1325      C1504   1.427       .  S
C1327      N1328   1.374       .  A
C1327      C1420   1.479       .  S
O1329     Ni1335   1.948       .  S
O1329      C1350   1.280       .  A
O1330      C1339   1.266       .  A
O1331     Ni1335   1.923       .  S
O1331     Ni1353   1.908       .  S
O1331     Ni1347   1.927       .  S
O1331      H1354   0.962       .  S
C1332      O1349   1.271       .  A
O1333     Ni1352   1.940       .  S
O1333      C1339   1.279       .  A
O1334      C1336   1.277       .  A
Ni1335     O1338   1.974       .  S
Ni1335     O1340   1.930       .  S
C1336      C1367   1.478       .  S
C1336      O1346   1.271       .  A
O1337     Ni1353   1.922       .  S
O1337      C1343   1.266       .  A
O1338      C1343   1.286       .  A
C1339      C1483   1.476       .  S
O1341     Ni1352   1.966       .  S
C1342      C1405   1.478       .  S
C1342      O1348   1.273       .  A
C1343      C1365   1.500       .  S
H1344      O1345   0.966       .  S
O1345     Ni1352   1.921       .  S
O1346     Ni1347   1.932       .  S
Ni1347     O1351   1.907       .  S
Ni1347     O1349   1.915       .  S
C1350      C1447   1.474       .  S
C1350      O1351   1.263       .  A
C1355      N1356   1.348       .  A
C1355      N1360   1.363       .  A
C1355      C1469   1.455       .  S
N1356      C1357   1.342       .  A
C1357      N1358   1.362       .  A
C1357      C1502   1.427       .  S
N1358      C1359   1.362       .  A
C1359      N1360   1.369       .  A
C1359      C1393   1.483       .  S
C1361      N1362   1.346       .  A
C1361      C1431   1.494       .  S
N1362      C1363   1.335       .  A
C1363      N1364   1.354       .  A
C1363      C1501   1.424       .  S
N1364      C1365   1.365       .  A
C1367      N1368   1.351       .  A
C1367      N1372   1.374       .  A
N1368      C1369   1.349       .  A
C1369      N1370   1.339       .  A
C1369      C1499   1.410       .  S
N1370      C1371   1.350       .  A
C1371      N1372   1.372       .  A
C1371      C1462   1.456       .  S
C1373      N1374   1.354       .  A
C1373      C1386   1.509       .  S
N1374      C1375   1.340       .  A
C1375      N1376   1.335       .  A
C1375      C1500   1.411       .  S
N1376      C1377   1.352       .  A
C1377      C1424   1.503       .  S
O1379     Ni1385   1.928       .  S
O1379      C1400   1.274       .  A
O1380     Ni1403   1.922       .  S
O1380      C1389   1.266       .  A
O1381     Ni1403   1.907       .  S
O1381      H1404   0.964       .  S
C1382      O1399   1.276       .  A
C1382      O1391   1.289       .  A
O1383     Ni1402   1.928       .  S
O1383      C1389   1.274       .  A
O1384     Ni1402   1.919       .  S
O1384      C1386   1.274       .  A
Ni1385     O1390   1.920       .  S
O1387     Ni1403   1.905       .  S
O1387      C1393   1.276       .  A
O1388      C1393   1.291       .  A
C1389      C1481   1.460       .  S
O1390      C1392   1.273       .  A
C1392      C1415   1.514       .  S
H1394      O1395   0.965       .  S
O1395     Ni1397   1.907       .  S
O1396     Ni1397   1.965       .  S
Ni1397     O1401   1.922       .  S
Ni1397     O1399   1.905       .  S
O1398     Ni1403   1.966       .  S
C1400      C1443   1.458       .  S
C1400      O1401   1.266       .  A
C1405      N1406   1.372       .  A
C1405      N1410   1.350       .  A
N1406      C1407   1.372       .  A
C1407      N1408   1.353       .  A
C1407      C1468   1.461       .  S
N1408      C1409   1.343       .  A
C1409      N1410   1.349       .  A
C1409      C1497   1.413       .  S
C1411      N1412   1.351       .  A
C1411      C1430   1.503   1_565  S
N1412      C1413   1.336       .  A
C1413      N1414   1.343       .  A
C1413      C1498   1.417       .  S
N1414      C1415   1.358       .  A
O1417     Ni1423   1.924       .  S
O1417      C1438   1.274       .  A
O1418      C1427   1.261       .  A
O1419     Ni1441   1.888       .  S
O1419      H1442   0.963       .  S
C1420      O1437   1.283       .  A
O1421     Ni1440   1.921   1_655  S
O1421      C1427   1.273   1_545  A
O1422      C1424   1.276       .  A
O1425     Ni1441   1.911   1_655  S
O1425      C1431   1.265       .  A
O1426      C1431   1.282       .  A
C1427      C1487   1.430       .  S
O1428      C1430   1.278       .  A
H1432      O1433   0.967       .  S
O1434     Ni1435   2.034       .  S
Ni1435     O1437   1.949       .  S
C1438      C1449   1.435       .  S
C1438      O1439   1.260   1_556  A
C1443      N1444   1.344       .  A
C1443      N1448   1.374       .  A
N1444      C1445   1.336       .  A
C1445      N1446   1.345       .  A
C1445      C1496   1.399       .  S
N1446      C1447   1.351       .  A
C1447      N1448   1.375       .  A
C1449      N1450   1.342       .  A
C1449      N1454   1.367       .  A
N1450      C1451   1.329       .  A
C1451      N1452   1.350       .  A
C1451      C1495   1.404       .  S
N1452      C1453   1.358       .  A
C1453      N1454   1.367       .  A
C1453      C1476   1.473       .  S
O1455     Ni1461   1.939       .  S
O1455      C1476   1.280       .  A
O1456      C1465   1.272       .  A
O1457     Ni1461   1.900   1_554  S
O1457     Ni1479   1.898       .  S
O1457      H1480   0.965       .  S
C1458      O1475   1.268       .  A
C1458      O1467   1.279       .  A
O1459     Ni1478   1.931       .  S
O1459      C1465   1.278       .  A
O1460     Ni1478   1.904       .  S
O1460      C1462   1.265       .  A
Ni1461     O1464   1.956       .  S
Ni1461     O1466   1.903       .  S
C1462      O1472   1.268       .  A
O1463     Ni1479   1.881       .  S
O1463      C1469   1.264   1_554  A
O1464      C1469   1.281       .  A
C1465      C1489   1.466       .  S
O1466      C1468   1.265       .  A
O1467     Ni1478   1.936       .  S
C1468      O1474   1.268       .  A
H1470      O1471   0.967       .  S
O1471     Ni1473   1.894       .  S
O1471     Ni1478   1.896       .  S
O1472     Ni1473   1.925       .  S
Ni1473     O1475   1.898       .  S
O1474     Ni1479   1.935   1_556  S
C1476      O1477   1.271   1_556  A
C1481      N1482   1.376       .  A
C1481      N1486   1.346       .  A
N1482      C1483   1.376       .  A
C1483      N1484   1.351       .  A
N1484      C1485   1.343       .  A
C1485      N1486   1.335       .  A
C1485      C1493   1.400       .  S
C1487      N1488   1.364       .  A
C1487      N1492   1.341       .  A
N1488      C1489   1.364       .  A
C1489      N1490   1.359       .  A
N1490      C1491   1.350       .  A
C1491      N1492   1.331       .  A
C1491      C1494   1.404       .  S
C1493      C1494   1.187       .  T
C1495      C1496   1.186       .  T
C1497      C1498   1.192       .  T
C1499      C1500   1.188       .  T
C1501      C1502   1.200       .  T
C1503      C1504   1.200       .  T
