geometry optimzed in LAMMPS
_audit_creation_date              2020-12-01 
_audit_creation_method            'lammps2cif' 
_symmetry_space_group_name_H-M    'P1' 
_symmetry_Int_Tables_number       1 
_symmetry_cell_setting            triclinic 
loop_ 
_symmetry_equiv_pos_as_xyz 
  x,y,z 
_cell_length_a                    41.17975163 
_cell_length_b                    45.1817920523621 
_cell_length_c                    46.27438764106294 
_cell_angle_alpha                 90.62049103077486 
_cell_angle_beta                  88.53876248062043 
_cell_angle_gamma                 90.97058620303507 
loop_ 
_atom_site_label 
_atom_site_type_symbol 
_atom_site_fract_x 
_atom_site_fract_y 
_atom_site_fract_z 
_atom_site_charge 
C1          C  0.23117643  0.58853456  0.27344142     0.80500
N2          N  0.23675051  0.61821726  0.27445347    -0.77800
C3          C  0.25710568  0.63137749  0.25471184     0.82900
N4          N  0.27256732  0.61448972  0.23438057    -0.77800
C5          C  0.26721753  0.58469979  0.23323918     0.83000
N6          N  0.24631571  0.57185757  0.25270188    -0.79500
C7          C  0.21835509  0.90476287  0.23624762     0.80500
N8          N  0.21599309  0.87482926  0.23837751    -0.77800
C9          C  0.23752170  0.85971986  0.25398720     0.82900
N10         N  0.26146112  0.87477012  0.26782991    -0.77800
C11         C  0.26396272  0.90477038  0.26600211     0.83000
N12         N  0.24242461  0.91964767  0.25007371    -0.79500
Zr13       Zr  0.47093316  0.00541335  0.46301589     2.17500
O14         O  0.42658522  0.02769803  0.43729443    -0.51100
O15         O  0.50182352  0.04050076  0.43268205    -0.74300
O16         O  0.44493107  0.04615243  0.48961462    -0.81100
O17         O  0.47405125  0.93984829  0.41068261    -0.82800
O18         O  0.46444235  0.04932055  0.53506644    -0.78400
O19         O  0.44491843  0.98084626  0.42203656    -0.90100
O20         O  0.55543761  0.03612196  0.44169905    -0.76000
O21         O  0.51494539  0.02163673  0.49212782    -0.85500
O22         O  0.51784742  0.98021712  0.44512708    -0.85200
O23         O  0.45524340  0.99163698  0.51172224    -0.72000
O24         O  0.45880664  0.95349188  0.46831705    -0.84100
Zr25       Zr  0.53509056  0.92980489  0.52910111     2.26400
Zr26       Zr  0.50022682  0.00727218  0.54055734     2.06300
Zr27       Zr  0.50649544  0.92856621  0.45160210     2.10000
Zr28       Zr  0.56140993  0.99547820  0.47469851     1.78800
O29         O  0.47341801  0.88473355  0.44134086    -0.92900
O30         O  0.59286936  0.03592657  0.49607655    -0.40700
O31         O  0.55097787  0.94367828  0.48076597    -0.77400
O32         O  0.54790569  0.98186090  0.52344368    -0.96000
O33         O  0.48837034  0.95550646  0.54661771    -0.89300
O34         O  0.49144475  0.91369807  0.49959633    -0.92200
C35         C  0.53183950  0.04805285  0.42888487     1.01600
C36         C  0.45176960  0.95840170  0.40578589     1.14500
C37         C  0.44616745  0.05818955  0.51485455     1.05300
O38         O  0.53308986  0.05113406  0.55129982    -0.94300
O39         O  0.53348941  0.99687403  0.58190485    -0.90100
O40         O  0.55480740  0.95126892  0.57398945    -0.83200
C41         C  0.55144612  0.97519859  0.58889722     1.11900
O42         O  0.38985805  0.95323502  0.50481157    -0.96300
Zr43       Zr  0.44493041  0.93973518  0.51692991     1.88900
O44         O  0.50427297  0.89157199  0.55601018    -0.73000
O45         O  0.46566959  0.00991200  0.58404735    -0.52200
O46         O  0.41563462  0.95432665  0.56114106    -0.96900
O47         O  0.41290982  0.89922878  0.49625168    -0.54100
O48         O  0.45058285  0.89834391  0.54886634    -0.73500
C49         C  0.47405911  0.88477333  0.56017489     0.98900
O50         O  0.57926643  0.90784553  0.55531488    -0.62300
O51         O  0.54023333  0.92252113  0.40788869    -0.57100
O52         O  0.56696615  0.89388228  0.50047775    -0.93800
O53         O  0.54377911  0.88834778  0.45670520    -0.92200
O54         O  0.59109103  0.97670771  0.43232268    -0.92600
O55         O  0.61820278  0.98438087  0.48238922    -0.91400
C56         C  0.56467578  0.88147972  0.47542506     1.17700
H57         H  0.52230736  0.98453986  0.42502130     0.33600
H58         H  0.56655042  0.98763118  0.53452144     0.44500
H59         H  0.48818969  0.89246820  0.50024700     0.38000
H60         H  0.43541791  0.00103618  0.51817151     0.34500
H61         H  0.60878129  0.04199507  0.48076238     0.26300
H62         H  0.47411066  0.02723277  0.59497982     0.32200
H63         H  0.42710045  0.94477408  0.57701518     0.38100
H64         H  0.58826844  0.99164888  0.41715024     0.32600
H65         H  0.53760353  0.94088126  0.39676979     0.31500
H66         H  0.48464262  0.87512700  0.42464459     0.33200
H67         H  0.42644245  0.88146000  0.49793336     0.32100
H68         H  0.61746222  0.96643514  0.49449743     0.36100
H69         H  0.57569902  0.88613608  0.55411773     0.28900
H70         H  0.43218813  0.04903886  0.43577455     0.33100
H71         H  0.37535563  0.94259521  0.51873737     0.35900
H72         H  0.56289228  0.92373470  0.41451025     0.28600
H73         H  0.59933924  0.91184553  0.54366106     0.41400
H74         H  0.52057783  0.06178146  0.56659379     0.31500
H75         H  0.57760476  0.05259829  0.49759797     0.39100
H76         H  0.41297454  0.90323900  0.47525656     0.30900
H77         H  0.44414116  0.01604933  0.57743980     0.31000
H78         H  0.40733389  0.02667283  0.45054114     0.31300
C79         C  0.78928699  0.37582160  0.74209913     0.80500
N80         N  0.76874546  0.39584447  0.75473908    -0.77800
C81         C  0.73984328  0.38636401  0.76690148     0.82900
N82         N  0.73186082  0.35699632  0.76615419    -0.77800
C83         C  0.75226520  0.33715666  0.75360991     0.83000
N84         N  0.78088744  0.34673716  0.74184206    -0.79500
C85         C  0.71350815  0.06706840  0.73336248     0.80500
N86         N  0.73218296  0.04790745  0.74810252    -0.77800
C87         C  0.75872049  0.05839583  0.76233431     0.82900
N88         N  0.76601547  0.08782414  0.76185972    -0.77800
C89         C  0.74740830  0.10685292  0.74759856     0.83000
N90         N  0.72122615  0.09637002  0.73337301    -0.79500
C91         C  0.56400749  0.21528078  0.27386030     0.80500
N92         N  0.59683033  0.21760517  0.27584376    -0.77800
C93         C  0.61415648  0.23771575  0.26019127     0.82900
N94         N  0.59854924  0.25575176  0.24231656    -0.77800
C95         C  0.56577424  0.25400024  0.23969474     0.83000
N96         N  0.54831146  0.23365752  0.25568636    -0.79500
C97         C  0.91001690  0.24218162  0.28152563     0.80500
N98         N  0.92859801  0.22796091  0.26085339    -0.77800
C99         C  0.91375518  0.21073588  0.24030224     0.82900
N100        N  0.88078279  0.20776802  0.24110755    -0.77800
C101        C  0.86246039  0.22175293  0.26150663     0.83000
N102        N  0.87723174  0.23881768  0.28158562    -0.79500
Zr103      Zr  0.04886734  0.44560641  0.46673101     2.17500
O104        O  0.09971185  0.43304287  0.44162016    -0.51100
O105        O  0.02683424  0.40943574  0.43284831    -0.74300
O106        O  0.07663671  0.40473792  0.48910027    -0.81100
O107        O  0.03883943  0.51267653  0.41794302    -0.82800
O108        O  0.05531955  0.39671833  0.53420889    -0.78400
O109        O  0.07238884  0.47463586  0.42709110    -0.90100
O110        O  0.97272654  0.40329872  0.44169426    -0.76000
O111        O  0.00729732  0.42157755  0.49503095    -0.85500
O112        O  0.99886506  0.46367722  0.44968781    -0.85200
O113        O  0.05981810  0.45869967  0.51625851    -0.72000
O114        O  0.05163107  0.49816644  0.47450132    -0.84100
Zr115      Zr  0.96939961  0.50710601  0.53529117     2.26400
Zr116      Zr  0.01632159  0.43591438  0.54435656     2.06300
Zr117      Zr  0.00076770  0.51594815  0.45843755     2.10000
Zr118      Zr  0.95752235  0.44006843  0.47843374     1.78800
O119        O  0.02062655  0.56475567  0.44392810    -0.92900
O120        O  0.93779707  0.39331546  0.49863396    -0.40700
O121        O  0.95813789  0.49284670  0.48634075    -0.77400
O122        O  0.96589055  0.45431391  0.52779154    -0.96000
O123        O  0.01899754  0.48826693  0.55231703    -0.89300
O124        O  0.01135196  0.53034486  0.50712761    -0.92200
C125        C  0.99930695  0.39693828  0.42803370     1.01600
C126        C  0.06376195  0.49688722  0.41217746     1.14500
C127        C  0.07475705  0.39037878  0.51290047     1.05300
O128        O  0.99004132  0.38891021  0.55672922    -0.94300
O129        O  0.97982675  0.44247733  0.58680815    -0.90100
O130        O  0.95548162  0.48701194  0.58220712    -0.83200
C131        C  0.96059391  0.46306542  0.59580623     1.11900
O132        O  0.11801455  0.50940616  0.50913877    -0.96300
Zr133      Zr  0.06086961  0.51132535  0.52386800     1.88900
O134        O  0.99079270  0.54467766  0.56831378    -0.73000
O135        O  0.05173068  0.43658864  0.58575712    -0.52200
O136        O  0.09698983  0.49967110  0.56284191    -0.96900
O137        O  0.08267591  0.55839322  0.50597827    -0.54100
O138        O  0.04580495  0.54552621  0.56280663    -0.73500
C139        C  0.01920348  0.55419661  0.57508164     0.98900
O140        O  0.91144052  0.51146208  0.54688957    -0.62300
O141        O  0.96511418  0.51261703  0.41732634    -0.57100
O142        O  0.94437175  0.55082764  0.51589416    -0.93800
O143        O  0.96188582  0.55463260  0.46908457    -0.92200
O144        O  0.92198443  0.45024060  0.43859179    -0.92600
O145        O  0.89990469  0.44068922  0.49160153    -0.91400
C146        C  0.94493137  0.56340429  0.49113495     1.17700
H147        H  0.99637072  0.45965061  0.42931364     0.33600
H148        H  0.94799912  0.44617076  0.53918064     0.44500
H149        H  0.01083896  0.55163555  0.50943215     0.38000
H150        H  0.08054613  0.45118348  0.52181969     0.34500
H151        H  0.92756939  0.38271828  0.48228384     0.26300
H152        H  0.04487123  0.41901561  0.59711302     0.32200
H153        H  0.08258319  0.49104383  0.57809981     0.38100
H154        H  0.93603368  0.44883430  0.42096944     0.32600
H155        H  0.94319826  0.50899264  0.42598478     0.31500
H156        H  0.04257582  0.56653862  0.45204612     0.33200
H157        H  0.06446803  0.57238695  0.50747757     0.32100
H158        H  0.89699274  0.45958316  0.50231383     0.36100
H159        H  0.90082782  0.51195615  0.52793770     0.28900
H160        H  0.09746939  0.41189547  0.43603987     0.33100
H161        H  0.11908920  0.49315617  0.49462899     0.35900
H162        H  0.96442867  0.53309431  0.40998311     0.28600
H163        H  0.90442620  0.49207873  0.55487584     0.41400
H164        H  0.00421852  0.38012890  0.57120261     0.31500
H165        H  0.95760499  0.38197418  0.50230454     0.39100
H166        H  0.08622260  0.55515532  0.48494517     0.30900
H167        H  0.07353393  0.43167013  0.57777057     0.31000
H168        H  0.11663597  0.43373383  0.45644044     0.31300
C169        C  0.42476356  0.72978348  0.72174762     0.80500
N170        N  0.44054718  0.71344715  0.74144664    -0.77800
C171        C  0.42346502  0.69540622  0.75993137     0.82900
N172        N  0.39048744  0.69412737  0.75870067    -0.77800
C173        C  0.37452112  0.71064755  0.73953602     0.83000
N174        N  0.39176208  0.72835017  0.72103109    -0.79500
C175        C  0.07567801  0.75838654  0.76071534     0.80500
N176        N  0.05986759  0.73743282  0.74459139    -0.77800
C177        C  0.07721329  0.71875502  0.72698151     0.82900
N178        N  0.11012262  0.72136464  0.72560706    -0.77800
C179        C  0.12600222  0.74201862  0.74148403     0.83000
N180        N  0.10870359  0.76043724  0.75895581    -0.79500
Zr181      Zr  0.02760367  0.00736391  0.03665237     2.17500
O182        O  0.08447491  0.01126298  0.05003446    -0.51100
O183        O  0.00818549  0.04224389  0.07375820    -0.74300
O184        O  0.05410858  0.05208450  0.01843602    -0.81100
O185        O  0.02040961  0.93335090  0.07570961    -0.82800
O186        O  0.03173037  0.06441217  0.97581926    -0.78400
O187        O  0.04694440  0.97796531  0.07645967    -0.90100
O188        O  0.95330329  0.04325196  0.07050683    -0.76000
O189        O  0.98383058  0.03263999  0.01563708    -0.85500
O190        O  0.97923872  0.98334720  0.05418501    -0.85200
O191        O  0.03565402  0.00221364  0.98507906    -0.72000
O192        O  0.03108045  0.95682465  0.02068092    -0.84100
Zr193      Zr  0.94525385  0.95236971  0.96493160     2.26400
Zr194      Zr  0.99069020  0.02674195  0.96440539     2.06300
Zr195      Zr  0.98188438  0.93325012  0.03712627     2.10000
Zr196      Zr  0.93572856  0.00846342  0.03306149     1.78800
O197        O  0.00888649  0.88574676  0.03773024    -0.92900
O198        O  0.90921076  0.05528274  0.02438833    -0.40700
O199        O  0.93742508  0.95800929  0.01642387    -0.77400
O200        O  0.94127408  0.00318962  0.98144874    -0.96000
O201        O  0.99383521  0.97646657  0.94780354    -0.89300
O202        O  0.98899610  0.92728532  0.98601456    -0.92200
C203        C  0.98018202  0.05216741  0.08150869     1.01600
C204        C  0.04128925  0.95169639  0.08605417     1.14500
C205        C  0.05205526  0.06858494  0.99620284     1.05300
O206        O  0.96366311  0.07423227  0.96351958    -0.94300
O207        O  0.95315845  0.02577825  0.92452086    -0.90100
O208        O  0.92525575  0.98190741  0.92542816    -0.83200
C209        C  0.93165572  0.00756497  0.91478225     1.11900
O210        O  0.09526914  0.95546974  0.97919981    -0.96300
Zr211      Zr  0.03743651  0.95172475  0.96947621     1.88900
O212        O  0.96719060  0.91960868  0.92651022    -0.73000
O213        O  0.02250564  0.03550292  0.92011080    -0.52200
O214        O  0.06825360  0.97038118  0.92767064    -0.96900
O215        O  0.05994419  0.90347865  0.97972310    -0.54100
O216        O  0.02211564  0.92114788  0.92912823    -0.73500
C217        C  0.99579003  0.91210452  0.91756389     0.98900
O218        O  0.89023355  0.93834870  0.95105723    -0.62300
O219        O  0.94972486  0.92517162  0.08130955    -0.57100
O220        O  0.91550089  0.91010023  0.98573411    -0.93800
O221        O  0.94134352  0.89566205  0.02598399    -0.92200
O222        O  0.90715420  0.98922338  0.07581340    -0.92600
O223        O  0.87757740  0.00263759  0.02588033    -0.91400
C224        C  0.91907023  0.89276783  0.00726499     1.17700
H225        H  0.97779809  0.98419659  0.07504879     0.33600
H226        H  0.92274961  0.01239761  0.97315952     0.44500
H227        H  0.98869971  0.90652098  0.98069774     0.38000
H228        H  0.05595708  0.01138518  0.97887873     0.34500
H229        H  0.92626830  0.07068704  0.02714082     0.26300
H230        H  0.01698543  0.05583721  0.91441999     0.32200
H231        H  0.05178479  0.97887155  0.91508786     0.38100
H232        H  0.92231091  0.99225740  0.09187963     0.32600
H233        H  0.92689974  0.92729208  0.07553832     0.31500
H234        H  0.00025273  0.87596029  0.05542491     0.33200
H235        H  0.04331855  0.88872878  0.97373528     0.32100
H236        H  0.87573718  0.99585173  0.00555778     0.36100
H237        H  0.87728366  0.95655095  0.95317327     0.28900
H238        H  0.08698811  0.03075867  0.05977748     0.33100
H239        H  0.10612379  0.94287622  0.96434438     0.35900
H240        H  0.95185740  0.90382406  0.08533093     0.28600
H241        H  0.89146891  0.93414035  0.93001275     0.41400
H242        H  0.96406834  0.08160470  0.98373242     0.31500
H243        H  0.90528449  0.05536582  0.00337680     0.39100
H244        H  0.05972793  0.90241694  0.00108241     0.30900
H245        H  0.04535085  0.03706784  0.92620135     0.31000
H246        H  0.09701931  0.01304855  0.03156885     0.31300
C247        C  0.22330060  0.23128240  0.60076400     0.80500
N248        N  0.22571714  0.22921242  0.62984317    -0.77800
C249        C  0.25059709  0.21473124  0.64155416     0.82900
N250        N  0.27317715  0.20200443  0.62399527    -0.77800
C251        C  0.27151960  0.20389012  0.59477171     0.83000
N252        N  0.24629928  0.21852419  0.58300825    -0.79500
C253        C  0.21605519  0.21943358  0.90592630     0.80500
N254        N  0.22014583  0.22240514  0.87692276    -0.77800
C255        C  0.24608723  0.23763236  0.86570261     0.82900
N256        N  0.26797168  0.25003471  0.88370427    -0.77800
C257        C  0.26433487  0.24705909  0.91282553     0.83000
N258        N  0.23817613  0.23188365  0.92396651    -0.79500
Zr259      Zr  0.54442191  0.50751039  0.96510820     2.17500
O260        O  0.60029946  0.52012901  0.95066227    -0.51100
O261        O  0.52413426  0.54233905  0.92971959    -0.74300
O262        O  0.56325964  0.47958495  0.92226082    -0.81100
O263        O  0.55290998  0.55790972  0.03168945    -0.82800
O264        O  0.53295301  0.43713963  0.91927271    -0.78400
O265        O  0.57384972  0.54933873  0.98649432    -0.90100
O266        O  0.46925952  0.54277533  0.93526118    -0.76000
O267        O  0.49493513  0.48608341  0.94851839    -0.85500
O268        O  0.50156271  0.53233189  0.99057276    -0.85200
O269        O  0.54666478  0.45582073  0.97729774    -0.72000
O270        O  0.55246629  0.49823945  0.01558196    -0.84100
Zr271      Zr  0.46001803  0.45043927  0.03667699     2.26400
Zr272      Zr  0.49624240  0.43492632  0.96116454     2.06300
Zr273      Zr  0.50893410  0.52272757  0.04067558     2.10000
Zr274      Zr  0.45230010  0.51048404  0.97433799     1.78800
O275        O  0.53846448  0.52946763  0.08528450    -0.92900
O276        O  0.42049667  0.49413322  0.93325621    -0.40700
O277        O  0.45842971  0.50210462  0.02490078    -0.77400
O278        O  0.45231299  0.45909721  0.98608181    -0.96000
O279        O  0.50277835  0.42532456  0.01140755    -0.89300
O280        O  0.50964541  0.47161064  0.05355738    -0.92200
C281        C  0.49590497  0.55113365  0.92264950     1.01600
C282        C  0.57274041  0.56375364  0.01058109     1.14500
C283        C  0.55548006  0.45485955  0.90996082     1.05300
O284        O  0.46051613  0.43156348  0.92009206    -0.94300
O285        O  0.45649325  0.39622786  0.97306194    -0.90100
O286        O  0.43335854  0.40636763  0.01717208    -0.83200
C287        C  0.43620313  0.39069383  0.99396655     1.11900
O288        O  0.61054256  0.44483000  0.01960178    -0.96300
Zr289      Zr  0.55200602  0.44680155  0.02783472     1.88900
O290        O  0.47940767  0.41628832  0.07288708    -0.73000
O291        O  0.52186220  0.38749249  0.95157391    -0.52200
O292        O  0.57201983  0.39899030  0.01112396    -0.96900
O293        O  0.58517465  0.46386672  0.06777171    -0.54100
O294        O  0.53399316  0.41327548  0.06581296    -0.73500
C295        C  0.50727148  0.40588163  0.07890862     0.98900
O296        O  0.40291478  0.43943351  0.04819261    -0.62300
O297        O  0.48683894  0.57236114  0.04411664    -0.57100
O298        O  0.43816892  0.48016554  0.07694671    -0.93800
O299        O  0.47005791  0.52154092  0.08073488    -0.92200
O300        O  0.43074854  0.55847136  0.98866619    -0.92600
O301        O  0.39409590  0.50777628  0.98510883    -0.91400
C302        C  0.44615847  0.50491705  0.08899149     1.17700
H303        H  0.50235927  0.55336848  0.98696737     0.33600
H304        H  0.43184737  0.45057375  0.98024275     0.44500
H305        H  0.51141000  0.46960949  0.07423037     0.38000
H306        H  0.56480122  0.44654887  0.96739388     0.34500
H307        H  0.40977619  0.51221002  0.92662160     0.26300
H308        H  0.51931589  0.37651872  0.96991829     0.32200
H309        H  0.55502587  0.38444760  0.01725463     0.38100
H310        H  0.41872284  0.56506413  0.97169221     0.32600
H311        H  0.46306978  0.56931240  0.04656045     0.31500
H312        H  0.52888278  0.54718358  0.09470027     0.33200
H313        H  0.58286930  0.44822799  0.08253575     0.32100
H314        H  0.39209607  0.51033490  0.00635654     0.36100
H315        H  0.40169173  0.43490569  0.06908738     0.28900
H316        H  0.59956913  0.52591380  0.93010940     0.33100
H317        H  0.61522711  0.45966034  0.00439368     0.35900
H318        H  0.49391725  0.58015841  0.06306197     0.28600
H319        H  0.39152317  0.45842063  0.04628847     0.41400
H320        H  0.45922419  0.41019070  0.91523327     0.31500
H321        H  0.43678592  0.48966929  0.91778602     0.39100
H322        H  0.57344325  0.48091944  0.07627651     0.30900
H323        H  0.50725393  0.37698132  0.93807601     0.31000
H324        H  0.61214246  0.50123583  0.95058888     0.31300
C325        C  0.81589210  0.73566172  0.40089171     0.80500
N326        N  0.79306936  0.74675564  0.41972402    -0.77800
C327        C  0.76825626  0.76304990  0.40975803     0.82900
N328        N  0.76646719  0.76816967  0.38091466    -0.77800
C329        C  0.78943840  0.75751776  0.36214444     0.83000
N330        N  0.81403717  0.74139442  0.37228382    -0.79500
C331        C  0.74327927  0.77397702  0.10103491     0.80500
N332        N  0.72397977  0.75241321  0.08935739    -0.77800
C333        C  0.70676423  0.73363902  0.10694803     0.82900
N334        N  0.70916203  0.73639620  0.13599549    -0.77800
C335        C  0.72848632  0.75755964  0.14780086     0.83000
N336        N  0.74536645  0.77655477  0.13025516    -0.79500
C337        C  0.75897132  0.77490137  0.28636660     0.18900
C338        C  0.72900683  0.76919523  0.27358553    -0.19100
C339        C  0.72624751  0.77002504  0.24358868    -0.11400
C340        C  0.75349228  0.77678751  0.22569817     0.21200
C341        C  0.78315144  0.78383649  0.23859877    -0.20800
C342        C  0.78596899  0.78275489  0.26864970    -0.11600
C343        C  0.75159125  0.77670171  0.19364752    -0.15800
C344        C  0.73037857  0.75919993  0.17955505    -0.29600
C345        C  0.76121794  0.77245217  0.31817856    -0.03900
C346        C  0.78797090  0.76264134  0.33077696    -0.40400
H347        H  0.70777527  0.76354442  0.28683300     0.12300
H348        H  0.70265942  0.76559557  0.23457241     0.12000
H349        H  0.80433443  0.78964182  0.22535918     0.11400
H350        H  0.80919246  0.78819888  0.27796398     0.11700
H351        H  0.76915873  0.79004121  0.18137110     0.14400
H352        H  0.71436195  0.74426025  0.19163761     0.13200
H353        H  0.73945160  0.77645813  0.33132325     0.10800
H354        H  0.80894427  0.75639265  0.31751913     0.12900
C355        C  0.65716350  0.68124060  0.05792732     0.18900
C356        C  0.66365116  0.66451171  0.03277456    -0.19100
C357        C  0.64287642  0.64101752  0.02485981    -0.11400
C358        C  0.61496173  0.63408773  0.04193523     0.21200
C359        C  0.60776573  0.65195173  0.06617635    -0.20800
C360        C  0.62841528  0.67527475  0.07400987    -0.11600
C361        C  0.59283032  0.60835476  0.03622912    -0.15800
C362        C  0.59594735  0.58888988  0.01407652    -0.29600
C363        C  0.68069464  0.70448181  0.06743862    -0.03900
C364        C  0.68455926  0.71063828  0.09565665    -0.40400
H365        H  0.68535050  0.66903778  0.01973320     0.12300
H366        H  0.64925860  0.62824702  0.00575580     0.12000
H367        H  0.58619445  0.64761367  0.07945798     0.11400
H368        H  0.62178341  0.68853973  0.09279000     0.11700
H369        H  0.57263060  0.60519334  0.05153696     0.14400
H370        H  0.61520348  0.59142214  0.99786783     0.13200
H371        H  0.69587288  0.71567899  0.05126298     0.10800
H372        H  0.67096334  0.69788413  0.11177460     0.12900
C373        C  0.34313677  0.28466975  0.93839589     0.18900
C374        C  0.33461301  0.30575219  0.95972059    -0.21100
C375        C  0.35826509  0.32503182  0.97090465    -0.11400
C376        C  0.39085752  0.32342926  0.96101242     0.21200
C377        C  0.39938617  0.30137693  0.94079453    -0.20800
C378        C  0.37580493  0.28228222  0.92957366    -0.11600
C379        C  0.41580197  0.34628859  0.96824464    -0.15800
C380        C  0.41341903  0.36528019  0.99076757    -0.29600
C381        C  0.31849094  0.26768842  0.92203491    -0.03900
C382        C  0.28840999  0.26083466  0.93211213    -0.40400
H383        H  0.30950882  0.30866827  0.96647252     0.12300
H384        H  0.35047348  0.34213902  0.98591778     0.12000
H385        H  0.42422555  0.29968551  0.93273232     0.11400
H386        H  0.38293659  0.26630090  0.91307779     0.11700
H387        H  0.43669911  0.34821847  0.95350459     0.14400
H388        H  0.39378377  0.36296829  0.00669887     0.13200
H389        H  0.32550018  0.26083543  0.90018686     0.10800
H390        H  0.28139508  0.26529051  0.95448573     0.12900
C391        C  0.24007100  0.22486416  0.78391569     0.18900
C392        C  0.24161612  0.19920291  0.76670578    -0.19100
C393        C  0.24190300  0.20108312  0.73662312    -0.11400
C394        C  0.24011604  0.22875378  0.72321548     0.21200
C395        C  0.23845372  0.25446521  0.74043391    -0.20800
C396        C  0.23880474  0.25261090  0.77057536    -0.11600
C397        C  0.23809535  0.23117064  0.69145380    -0.15800
C398        C  0.25319968  0.21237048  0.67309732    -0.29600
C399        C  0.23702694  0.22179842  0.81562599    -0.03900
C400        C  0.25037897  0.24117268  0.83422318    -0.40400
H401        H  0.24222979  0.17760769  0.77660804     0.12300
H402        H  0.24234482  0.18080111  0.72396904     0.12000
H403        H  0.23668476  0.27597763  0.73052953     0.11400
H404        H  0.23684196  0.27271899  0.78339637     0.11700
H405        H  0.22472389  0.24955677  0.68295097     0.14400
H406        H  0.26888614  0.19547623  0.68129788     0.13200
H407        H  0.22428001  0.20227843  0.82391504     0.10800
H408        H  0.26559271  0.25934952  0.82625882     0.12900
C409        C  0.83979732  0.84752665  0.01389851     0.18900
C410        C  0.80949166  0.85786533  0.02370100    -0.19100
C411        C  0.78671162  0.83851618  0.03656964    -0.11400
C412        C  0.79356654  0.80833713  0.03903355     0.21200
C413        C  0.82298722  0.79759411  0.02759141    -0.20800
C414        C  0.84620339  0.81711072  0.01548609    -0.11600
C415        C  0.77126073  0.78824492  0.05524137    -0.15800
C416        C  0.76196935  0.79482256  0.08255844    -0.29600
C417        C  0.86473369  0.86920573  0.00348161    -0.03900
C418        C  0.89570813  0.86800675  0.01181252    -0.40400
H419        H  0.80402688  0.88118578  0.02255873     0.12300
H420        H  0.76396838  0.84714549  0.04504728     0.12000
H421        H  0.82857776  0.77433825  0.02924069     0.11400
H422        H  0.86923625  0.80853050  0.00767572     0.11700
H423        H  0.76559260  0.76659528  0.04604495     0.14400
H424        H  0.77053784  0.81535529  0.09244009     0.13200
H425        H  0.85662605  0.88866819  0.99229436     0.10800
H426        H  0.90298125  0.85005959  0.02556791     0.12900
C427        C  0.10524135  0.13301303  0.96652582     0.18900
C428        C  0.10006213  0.15744386  0.94891588    -0.19100
C429        C  0.12538273  0.17739711  0.94234776    -0.11400
C430        C  0.15663974  0.17302749  0.95292624     0.21200
C431        C  0.16165450  0.14918495  0.97133096    -0.20800
C432        C  0.13630019  0.12916863  0.97790298    -0.11600
C433        C  0.18459489  0.19221804  0.94393250    -0.15800
C434        C  0.18740583  0.20272846  0.91692228    -0.29600
C435        C  0.07847956  0.11092202  0.97079931    -0.03900
C436        C  0.07613473  0.09308075  0.99382674    -0.40400
H437        H  0.07639904  0.16092378  0.93995032     0.12300
H438        H  0.12054481  0.19605747  0.92872037     0.12000
H439        H  0.18555605  0.14535583  0.97966219     0.11400
H440        H  0.14150924  0.11016744  0.99092162     0.11700
H441        H  0.20442994  0.19547771  0.95874473     0.14400
H442        H  0.16882499  0.19724147  0.90140765     0.13200
H443        H  0.06028315  0.10917394  0.95423179     0.10800
H444        H  0.09332204  0.09556970  0.01112393     0.12900
C445        C  0.03702175  0.86426565  0.85728491     0.18900
C446        C  0.06831765  0.86654524  0.84478669    -0.19100
C447        C  0.07885776  0.84637168  0.82382019    -0.11400
C448        C  0.05855436  0.82306694  0.81465567     0.21200
C449        C  0.02680807  0.82079707  0.82672870    -0.20800
C450        C  0.01609595  0.84131832  0.84790092    -0.11600
C451        C  0.07286798  0.80153621  0.79352056    -0.15800
C452        C  0.05740420  0.77864125  0.78051035    -0.29600
C453        C  0.02909930  0.88508891  0.88145975    -0.03900
C454        C  0.99923839  0.89136539  0.89245308    -0.40400
H455        H  0.08505733  0.88386311  0.85161127     0.12300
H456        H  0.10340357  0.84878482  0.81505098     0.12000
H457        H  0.01049095  0.80300054  0.82048176     0.11400
H458        H  0.99199841  0.83858713  0.85745234     0.11700
H459        H  0.09853566  0.80499202  0.78834753     0.14400
H460        H  0.03161210  0.77463291  0.78420179     0.13200
H461        H  0.04996685  0.89639305  0.89071103     0.10800
H462        H  0.97762479  0.88148693  0.88318962     0.12900
C463        C  0.45754253  0.59772725  0.86253907     0.18900
C464        C  0.42673844  0.59468271  0.85055735    -0.19100
C465        C  0.41713475  0.61325149  0.82869492    -0.11400
C466        C  0.43789996  0.63571199  0.81802679     0.21200
C467        C  0.46937233  0.63849792  0.82929457    -0.20800
C468        C  0.47915841  0.61955985  0.85141016    -0.11600
C469        C  0.42420866  0.65601686  0.79639450    -0.15800
C470        C  0.44059716  0.67680969  0.78090715    -0.29600
C471        C  0.46416460  0.57873093  0.88776934    -0.03900
C472        C  0.49351459  0.57200293  0.89804880    -0.40400
H473        H  0.40958556  0.57805440  0.85853571     0.12300
H474        H  0.39287131  0.61034610  0.82047029     0.12000
H475        H  0.48607009  0.65564302  0.82179695     0.11400
H476        H  0.50299967  0.62273331  0.86035812     0.11700
H477        H  0.39835107  0.65323620  0.79280047     0.14400
H478        H  0.46660447  0.67988123  0.78299056     0.13200
H479        H  0.44276537  0.56856225  0.89800177     0.10800
H480        H  0.51562053  0.58071759  0.88781831     0.12900
C481        C  0.21621988  0.72551386  0.72565551     0.18900
C482        C  0.23365786  0.69910086  0.72521952    -0.19100
C483        C  0.26762413  0.69975468  0.72515376    -0.11400
C484        C  0.28479031  0.72694176  0.72501051     0.21200
C485        C  0.26734645  0.75331240  0.72414844    -0.20800
C486        C  0.23337042  0.75266930  0.72470148    -0.11600
C487        C  0.32082277  0.72847436  0.72508044    -0.15800
C488        C  0.33870451  0.70858438  0.73878428    -0.29600
C489        C  0.18023080  0.72400128  0.72646392    -0.03900
C490        C  0.16180841  0.74445572  0.74007875    -0.40400
H491        H  0.22093929  0.67791075  0.72538524     0.12300
H492        H  0.28037037  0.67899577  0.72483951     0.12000
H493        H  0.28005685  0.77449183  0.72348546     0.11400
H494        H  0.22060969  0.77338783  0.72402519     0.11700
H495        H  0.33283741  0.74745948  0.71498792     0.14400
H496        H  0.32674790  0.69083450  0.75084445     0.13200
H497        H  0.16866367  0.70454473  0.71695160     0.10800
H498        H  0.17322093  0.76291393  0.75136700     0.12900
C499        C  0.16697397  0.27903349  0.55503857     0.18900
C500        C  0.17305605  0.29913152  0.53254422    -0.19100
C501        C  0.15068275  0.32117584  0.52653498    -0.11400
C502        C  0.12134746  0.32340915  0.54275923     0.21200
C503        C  0.11471845  0.30251839  0.56445437    -0.20800
C504        C  0.13699871  0.28045693  0.57037174    -0.11600
C505        C  0.09791351  0.34793158  0.53902371    -0.15800
C506        C  0.09721005  0.36521244  0.51547725    -0.29600
C507        C  0.19297376  0.25805056  0.56292035    -0.03900
C508        C  0.19555430  0.24801881  0.59001638    -0.40400
H509        H  0.19580563  0.29852204  0.52028985     0.12300
H510        H  0.15719019  0.33696833  0.50991564     0.12000
H511        H  0.09227518  0.30344697  0.57714639     0.11400
H512        H  0.13063743  0.26475361  0.58714154     0.11700
H513        H  0.08036219  0.35183295  0.55653401     0.14400
H514        H  0.11354284  0.36099554  0.49720374     0.13200
H515        H  0.21211292  0.25324195  0.54705202     0.10800
H516        H  0.17776723  0.25460323  0.60643796     0.12900
C517        C  0.90534459  0.63251052  0.45887298     0.18900
C518        C  0.91416293  0.65154676  0.43610143    -0.19100
C519        C  0.89455019  0.67526715  0.42912252    -0.11400
C520        C  0.86521718  0.68029785  0.44459371     0.21200
C521        C  0.85686351  0.66176681  0.46787259    -0.20800
C522        C  0.87651956  0.63805102  0.47489066    -0.11600
C523        C  0.84218016  0.70384562  0.43670887    -0.15800
C524        C  0.84180510  0.71596379  0.41028830    -0.29600
C525        C  0.92608813  0.60649123  0.46401655    -0.03900
C526        C  0.92439014  0.58968631  0.48793772    -0.40400
H527        H  0.93629341  0.64794088  0.42347491     0.12300
H528        H  0.90261802  0.68946171  0.41162146     0.12000
H529        H  0.83448859  0.66512417  0.48020173     0.11400
H530        H  0.86837852  0.62376048  0.49227941     0.11700
H531        H  0.82312836  0.70952613  0.45237738     0.14400
H532        H  0.85940088  0.70934458  0.39374381     0.13200
H533        H  0.94391281  0.60104506  0.44714211     0.10800
H534        H  0.90802998  0.59526539  0.50581711     0.12900
C535        C  0.06773303  0.64905306  0.67814285     0.18900
C536        C  0.09026304  0.62714896  0.67058381    -0.19100
C537        C  0.08336649  0.60576189  0.64962496    -0.11400
C538        C  0.05362285  0.60540590  0.63555219     0.21200
C539        C  0.03030357  0.62667055  0.64376655    -0.20800
C540        C  0.03731795  0.64835126  0.66488855    -0.11600
C541        C  0.04938655  0.58346805  0.61151333    -0.15800
C542        C  0.02110816  0.57656900  0.59880979    -0.29600
C543        C  0.07876306  0.67288824  0.69826034    -0.03900
C544        C  0.06102566  0.69538231  0.70936821    -0.40400
H545        H  0.11386847  0.62699108  0.68041077     0.12300
H546        H  0.10178331  0.58971472  0.64395635     0.12000
H547        H  0.00715133  0.62739122  0.63333890     0.11400
H548        H  0.01934128  0.66489680  0.67000292     0.11700
H549        H  0.07104657  0.57188593  0.60414339     0.14400
H550        H  0.99867288  0.58652876  0.60645854     0.13200
H551        H  0.10417335  0.67197168  0.70395213     0.10800
H552        H  0.03522035  0.69680990  0.70562212     0.12900
C553        C  0.94663751  0.11604322  0.13090888     0.18900
C554        C  0.91765892  0.13170447  0.12924684    -0.19100
C555        C  0.90965376  0.15362018  0.14945648    -0.11400
C556        C  0.93021659  0.16079663  0.17231376     0.21200
C557        C  0.96008300  0.14606994  0.17367841    -0.20800
C558        C  0.96827636  0.12385706  0.15307241    -0.11600
C559        C  0.91708027  0.18154211  0.19501153    -0.15800
C560        C  0.93268907  0.19385676  0.21772026    -0.29600
C561        C  0.95134781  0.09106870  0.10971549    -0.03900
C562        C  0.97885957  0.07587789  0.10431012    -0.40400
H563        H  0.90052335  0.12650366  0.11246897     0.12300
H564        H  0.88653344  0.16445965  0.14762202     0.12000
H565        H  0.97650251  0.15083113  0.19106786     0.11400
H566        H  0.99085452  0.11229001  0.15518470     0.11700
H567        H  0.89149781  0.18647864  0.19302471     0.14400
H568        H  0.95856165  0.19096853  0.22017622     0.13200
H569        H  0.93030831  0.08521886  0.09700008     0.10800
H570        H  0.00088981  0.08159887  0.11561599     0.12900
C571        C  0.97301992  0.33148394  0.37824935     0.18900
C572        C  0.95330548  0.30625245  0.38269878    -0.19100
C573        C  0.94862640  0.28554744  0.36046337    -0.11400
C574        C  0.96306392  0.28981165  0.33286271     0.21200
C575        C  0.98427718  0.31415467  0.32877756    -0.20800
C576        C  0.98910962  0.33492076  0.35117406    -0.11600
C577        C  0.95421173  0.27026626  0.30787324    -0.15800
C578        C  0.92343128  0.26027664  0.30542916    -0.29600
C579        C  0.97422691  0.35444920  0.40166741    -0.03900
C580        C  0.99883751  0.37413077  0.40471022    -0.40400
H581        H  0.94094362  0.30279870  0.40336673     0.12300
H582        H  0.93302098  0.26648901  0.36474097     0.12000
H583        H  0.99584248  0.31790473  0.30782294     0.11400
H584        H  0.00422181  0.35423134  0.34673277     0.11700
H585        H  0.97197261  0.26611684  0.29061613     0.14400
H586        H  0.90561223  0.26698585  0.32184083     0.13200
H587        H  0.95432000  0.35459314  0.41755426     0.10800
H588        H  0.01999413  0.37300346  0.39029211     0.12900
C589        C  0.54286852  0.35285039  0.13520150     0.18900
C590        C  0.57482246  0.35018506  0.14443379    -0.19100
C591        C  0.58206176  0.33148276  0.16700877    -0.11400
C592        C  0.55768438  0.31443458  0.18101055     0.21200
C593        C  0.52543082  0.31694489  0.17196718    -0.20800
C594        C  0.51806398  0.33607311  0.14924568    -0.11600
C595        C  0.56815902  0.29449927  0.20440463    -0.15800
C596        C  0.55002726  0.27384496  0.21878744    -0.29600
C597        C  0.53757744  0.37287605  0.11041209    -0.03900
C598        C  0.50891676  0.38420959  0.10283764    -0.40400
H599        H  0.59447786  0.36272371  0.13411480     0.12300
H600        H  0.60714214  0.33015101  0.17335575     0.12000
H601        H  0.50594571  0.30424540  0.18220846     0.11400
H602        H  0.49318017  0.33722485  0.14248604     0.11700
H603        H  0.59370641  0.29661578  0.20949745     0.14400
H604        H  0.52436321  0.27082994  0.21473900     0.13200
H605        H  0.55934820  0.37976450  0.09833202     0.10800
H606        H  0.48671372  0.37846629  0.11474884     0.12900
C607        C  0.77129796  0.23000183  0.27948140     0.18900
C608        C  0.75177234  0.25496892  0.28294367    -0.19100
C609        C  0.71798065  0.25217339  0.28211819    -0.11400
C610        C  0.70312189  0.22419997  0.27835755     0.21200
C611        C  0.72255069  0.19903392  0.27651074    -0.20800
C612        C  0.75641155  0.20189393  0.27677093    -0.11600
C613        C  0.66744261  0.22082971  0.27638964    -0.15800
C614        C  0.64963069  0.24071928  0.26268146    -0.29600
C615        C  0.80707336  0.23390698  0.27914084    -0.03900
C616        C  0.82685347  0.21735263  0.26224532    -0.40400
H617        H  0.76273224  0.27676064  0.28562507     0.12300
H618        H  0.70350144  0.27186681  0.28455266     0.12000
H619        H  0.71153068  0.17722675  0.27415141     0.11400
H620        H  0.77088757  0.18214715  0.27502561     0.11700
H621        H  0.65591799  0.20083220  0.28492905     0.14400
H622        H  0.66152913  0.25954205  0.25222417     0.13200
H623        H  0.81719730  0.25208884  0.29178260     0.10800
H624        H  0.81665200  0.20057263  0.24797741     0.12900
C625        C  0.82909380  0.03351494  0.80972074     0.18900
C626        C  0.86053885  0.04516767  0.81353062    -0.19100
C627        C  0.88024328  0.03459433  0.83509501    -0.11400
C628        C  0.86883313  0.01220094  0.85383085     0.21200
C629        C  0.83779284  0.99972332  0.84939036    -0.20800
C630        C  0.81798968  0.01032413  0.82765771    -0.11600
C631        C  0.88857281  0.00146347  0.87810889    -0.15800
C632        C  0.91290004  0.01756290  0.88990161    -0.29600
C633        C  0.80827671  0.04835629  0.78863955    -0.03900
C634        C  0.77901816  0.03864412  0.77953062    -0.40400
H635        H  0.86982538  0.06296645  0.79997978     0.12300
H636        H  0.90437337  0.04411594  0.83684567     0.12000
H637        H  0.82847179  0.98225477  0.86330955     0.11400
H638        H  0.79380248  0.00096266  0.82569290     0.11700
H639        H  0.88188179  0.98016061  0.88739651     0.14400
H640        H  0.91878949  0.03952722  0.88192505     0.13200
H641        H  0.81749873  0.06955300  0.78077489     0.10800
H642        H  0.76947547  0.01694512  0.78535768     0.12900
C643        C  0.62218132  0.44575218  0.84979117     0.18900
C644        C  0.65523115  0.45408929  0.84812456    -0.19100
C645        C  0.67670340  0.44011541  0.82848996    -0.11400
C646        C  0.66544284  0.41759832  0.80983789     0.21200
C647        C  0.63214141  0.41027827  0.81058189    -0.20800
C648        C  0.61070072  0.42432388  0.83004180    -0.11600
C649        C  0.68771167  0.39924863  0.79140395    -0.15800
C650        C  0.71799542  0.40746425  0.78239190    -0.29600
C651        C  0.60090738  0.45879060  0.87316151    -0.03900
C652        C  0.57402870  0.44483259  0.88384903    -0.40400
H653        H  0.66476068  0.47064163  0.86289815     0.12300
H654        H  0.70222876  0.44609528  0.82893430     0.12000
H655        H  0.62271548  0.39316494  0.79635113     0.11400
H656        H  0.58527586  0.41798889  0.82969070     0.11700
H657        H  0.67854512  0.37745509  0.78518973     0.14400
H658        H  0.72717682  0.42965752  0.78679756     0.13200
H659        H  0.60922308  0.47909006  0.88362309     0.10800
H660        H  0.56648330  0.42370815  0.87466689     0.12900
C661        C  0.91099235  0.42874355  0.65975124     0.18900
C662        C  0.90279217  0.39954298  0.66725376    -0.19100
C663        C  0.87699575  0.39337259  0.68659536    -0.11400
C664        C  0.85867827  0.41642026  0.69941672     0.21200
C665        C  0.86760568  0.44570890  0.69272045    -0.20800
C666        C  0.89349585  0.45188985  0.67333826    -0.11600
C667        C  0.82889331  0.41079189  0.71797171    -0.15800
C668        C  0.82103595  0.38398077  0.72863772    -0.29600
C669        C  0.93637071  0.43357943  0.63644369    -0.03900
C670        C  0.94123697  0.45955678  0.62295975    -0.40400
H671        H  0.91566980  0.38122166  0.65726704     0.12300
H672        H  0.87103281  0.37035052  0.69022622     0.12000
H673        H  0.85413315  0.46394949  0.70217648     0.11400
H674        H  0.89916262  0.47485771  0.66905459     0.11700
H675        H  0.81214809  0.42885748  0.72167307     0.14400
H676        H  0.83758616  0.36579551  0.72564655     0.13200
H677        H  0.94934535  0.41436829  0.62822317     0.10800
H678        H  0.92766645  0.47879083  0.62987713     0.12900
C679        C  0.74323959  0.19121901  0.73951832     0.18900
C680        C  0.71758909  0.21110603  0.74230455    -0.19100
C681        C  0.72369959  0.24157515  0.74306749    -0.11400
C682        C  0.75574361  0.25275976  0.74090015     0.21200
C683        C  0.78137819  0.23283951  0.73736963    -0.20800
C684        C  0.77526281  0.20233135  0.73680708    -0.11600
C685        C  0.76331877  0.28495699  0.74128893    -0.15800
C686        C  0.74349184  0.30537351  0.75326791    -0.29600
C687        C  0.73559405  0.15912672  0.73846669    -0.03900
C688        C  0.75586800  0.13863445  0.74799299    -0.40400
H689        H  0.69270310  0.20301490  0.74398545     0.12300
H690        H  0.70319002  0.25616490  0.74475973     0.12000
H691        H  0.80623349  0.24091096  0.73513419     0.11400
H692        H  0.79553058  0.18759722  0.73367938     0.11700
H693        H  0.78674341  0.29195958  0.73214051     0.14400
H694        H  0.72065241  0.29882406  0.76369531     0.13200
H695        H  0.71178075  0.15231098  0.73097587     0.10800
H696        H  0.77876670  0.14529376  0.75742801     0.12900
C697        C  0.34991657  0.16116807  0.57433878     0.18900
C698        C  0.37873271  0.15708127  0.58931792    -0.19100
C699        C  0.40151611  0.13636461  0.57980925    -0.11400
C700        C  0.39641998  0.11925146  0.55483965     0.21200
C701        C  0.36793713  0.12375559  0.53924128    -0.20800
C702        C  0.34491594  0.14452478  0.54889149    -0.11600
C703        C  0.42036197  0.09576857  0.54724833    -0.15800
C704        C  0.42375858  0.08305527  0.52089557    -0.29600
C705        C  0.32481830  0.18054807  0.58811252    -0.03900
C706        C  0.29670152  0.18901617  0.57640923    -0.40400
H707        H  0.38327189  0.16939221  0.60907244     0.12300
H708        H  0.42304165  0.13334486  0.59236575     0.12000
H709        H  0.36262043  0.11052584  0.52028429     0.11400
H710        H  0.32281414  0.14654255  0.53700551     0.11700
H711        H  0.43603913  0.08870095  0.56432668     0.14400
H712        H  0.40907300  0.09033124  0.50327027     0.13200
H713        H  0.32943708  0.18737681  0.61025183     0.10800
H714        H  0.29161571  0.18431131  0.55393708     0.12900
C715        C  0.63970641  0.83112020  0.46789685     0.18900
C716        C  0.67242692  0.83482136  0.47534179    -0.19100
C717        C  0.69676997  0.81810239  0.46144186    -0.11400
C718        C  0.68873901  0.79725457  0.43985424     0.21200
C719        C  0.65593444  0.79254377  0.43349597    -0.20800
C720        C  0.63166166  0.80891700  0.44758174    -0.11600
C721        C  0.71380286  0.78234228  0.42144334    -0.15800
C722        C  0.74372394  0.77564119  0.43017771    -0.29600
C723        C  0.61483757  0.85161409  0.48043762    -0.03900
C724        C  0.58779404  0.85829951  0.46621433    -0.40400
H725        H  0.67933336  0.85157731  0.49104454     0.12300
H726        H  0.72187913  0.82258038  0.46658848     0.12000
H727        H  0.64908010  0.77644406  0.41713567     0.11400
H728        H  0.60669252  0.80435816  0.44208729     0.11700
H729        H  0.70706419  0.77637431  0.39954531     0.14400
H730        H  0.75022808  0.77910836  0.45256334     0.13200
H731        H  0.62026766  0.86342251  0.50036772     0.10800
H732        H  0.58345905  0.84814196  0.44528674     0.12900
C733        C  0.53052369  0.10666139  0.36814460     0.18900
C734        C  0.50805408  0.12669443  0.35744212    -0.19100
C735        C  0.51764162  0.14785419  0.33667646    -0.11400
C736        C  0.54995272  0.14908284  0.32600028     0.21200
C737        C  0.57204167  0.12855454  0.33627221    -0.20800
C738        C  0.56254152  0.10759770  0.35684006    -0.11600
C739        C  0.56285706  0.17154673  0.30509370    -0.15800
C740        C  0.54614864  0.19294840  0.29196698    -0.29600
C741        C  0.51991000  0.08443978  0.39030015    -0.03900
C742        C  0.54086372  0.07174005  0.40818264    -0.40400
H743        H  0.48311429  0.12622339  0.36546627     0.12300
H744        H  0.49984103  0.16322155  0.32938227     0.12000
H745        H  0.59704015  0.12870243  0.32835897     0.11400
H746        H  0.58040870  0.09191296  0.36337626     0.11700
H747        H  0.58883530  0.17048500  0.30054031     0.14400
H748        H  0.52001231  0.19449185  0.29475001     0.13200
H749        H  0.49425243  0.07853111  0.39199752     0.10800
H750        H  0.56626258  0.07852015  0.40753974     0.12900
C751        C  0.44621166  0.77970501  0.65599153     0.18900
C752        C  0.43142194  0.78362981  0.62933394    -0.19100
C753        C  0.44437820  0.80364993  0.60914744    -0.11400
C754        C  0.47230100  0.82074213  0.61529569     0.21200
C755        C  0.48797888  0.81594402  0.64139940    -0.20800
C756        C  0.47500332  0.79578689  0.66167373    -0.11600
C757        C  0.48465604  0.84435211  0.59532895    -0.15800
C758        C  0.46433833  0.85973223  0.57903566    -0.29600
C759        C  0.42952351  0.76006096  0.67759757    -0.03900
C760        C  0.44345972  0.74872268  0.70103123    -0.40400
H761        H  0.40942842  0.77137973  0.62420070     0.12300
H762        H  0.43226432  0.80582276  0.58881999     0.12000
H763        H  0.50963067  0.82865102  0.64660131     0.11400
H764        H  0.48697620  0.79374542  0.68205675     0.11700
H765        H  0.51024902  0.85057677  0.59559045     0.14400
H766        H  0.43846374  0.85475651  0.58048354     0.13200
H767        H  0.40428137  0.75428284  0.67362177     0.10800
H768        H  0.46907168  0.75255086  0.70480373     0.12900
C769        C  0.64801099  0.02129022  0.69357103     0.18900
C770        C  0.64909252  0.99491394  0.67738979    -0.19100
C771        C  0.62547539  0.98841900  0.65692844    -0.11400
C772        C  0.59978424  0.00803050  0.65260399     0.21200
C773        C  0.59801402  0.03380067  0.66972134    -0.20800
C774        C  0.62165443  0.04029433  0.69010576    -0.11600
C775        C  0.57591930  0.00369776  0.62917571    -0.15800
C776        C  0.57113805  0.97784445  0.61507127    -0.29600
C777        C  0.67541358  0.02913562  0.71276890    -0.03900
C778        C  0.68488699  0.05743114  0.71690281    -0.40400
H779        H  0.66906199  0.97988567  0.67968819     0.12300
H780        H  0.62840527  0.96862165  0.64389938     0.12000
H781        H  0.57851005  0.04924672  0.66699858     0.11400
H782        H  0.61936086  0.06037433  0.70289773     0.11700
H783        H  0.56257824  0.02295994  0.62261017     0.14400
H784        H  0.58355571  0.95813685  0.62158327     0.13200
H785        H  0.68959456  0.01145270  0.72157482     0.10800
H786        H  0.67196490  0.07490659  0.70639296     0.12900
C787        C  0.14671126  0.92236756  0.18733909     0.18900
C788        C  0.11592381  0.90944740  0.18330696    -0.19100
C789        C  0.09498692  0.92074715  0.16302251    -0.11400
C790        C  0.10465947  0.94507075  0.14586445     0.21200
C791        C  0.13507952  0.95852456  0.15050953    -0.20800
C792        C  0.15598864  0.94728022  0.17090387    -0.11600
C793        C  0.08408785  0.95681806  0.12274167    -0.15800
C794        C  0.06009657  0.94092828  0.11044325    -0.29600
C795        C  0.16911223  0.90783909  0.20723830    -0.03900
C796        C  0.19548970  0.92112860  0.21851964    -0.40400
H797        H  0.10811109  0.89032472  0.19576505     0.12300
H798        H  0.07135400  0.91027514  0.16102263     0.12000
H799        H  0.14310546  0.97733762  0.13771636     0.11400
H800        H  0.17973332  0.95756117  0.17286938     0.11700
H801        H  0.09012030  0.97869845  0.11445042     0.14400
H802        H  0.05472748  0.91849329  0.11737403     0.13200
H803        H  0.16356018  0.88494799  0.21274401     0.10800
H804        H  0.20063096  0.94442057  0.21482837     0.12900
C805        C  0.38058276  0.94928359  0.35422216     0.18900
C806        C  0.35446586  0.96572871  0.34452055    -0.19100
C807        C  0.33193532  0.95297483  0.32568608    -0.11400
C808        C  0.33510987  0.92335773  0.31629893     0.21200
C809        C  0.36115269  0.90699187  0.32609219    -0.20800
C810        C  0.38352803  0.91965481  0.34483890    -0.11600
C811        C  0.31081621  0.90782234  0.29812853    -0.15800
C812        C  0.28897135  0.92150532  0.28204281    -0.29600
C813        C  0.40264650  0.96238450  0.37609625    -0.03900
C814        C  0.43247078  0.95178430  0.38010744    -0.40400
H815        H  0.35120406  0.98834460  0.35189857     0.12300
H816        H  0.31164363  0.96611392  0.31940325     0.12000
H817        H  0.36386927  0.88401355  0.31966470     0.11400
H818        H  0.40226411  0.90560311  0.35274598     0.11700
H819        H  0.31105585  0.88376461  0.29803614     0.14400
H820        H  0.28896550  0.94544696  0.28068961     0.13200
H821        H  0.39341373  0.97982838  0.39025325     0.10800
H822        H  0.44223829  0.93516217  0.36535484     0.12900
C823        C  0.33145774  0.55821440  0.17655463     0.18900
C824        C  0.36040204  0.57119282  0.16578409    -0.19100
C825        C  0.38115285  0.55554915  0.14713713    -0.11400
C826        C  0.37370089  0.52616325  0.13888794     0.21200
C827        C  0.34439965  0.51328713  0.14912252    -0.20800
C828        C  0.32347001  0.52904953  0.16781234    -0.11600
C829        C  0.39491829  0.50937731  0.11814006    -0.15800
C830        C  0.42651621  0.51641618  0.11357204    -0.29600
C831        C  0.31065625  0.57632931  0.19645888    -0.03900
C832        C  0.28499812  0.56587403  0.21205407    -0.40400
H833        H  0.36700729  0.59372766  0.17171237     0.12300
H834        H  0.40254688  0.56703676  0.13875087     0.12000
H835        H  0.33765885  0.49096430  0.14260331     0.11400
H836        H  0.30108634  0.51830711  0.17492611     0.11700
H837        H  0.38389034  0.49171929  0.10540030     0.14400
H838        H  0.43799105  0.53349710  0.12661986     0.13200
H839        H  0.31785175  0.59940914  0.19936247     0.10800
H840        H  0.27775271  0.54275130  0.21074690     0.12900
C841        C  0.17490919  0.53476486  0.31525003     0.18900
C842        C  0.14429557  0.52257049  0.30908153    -0.19100
C843        C  0.12462816  0.51048024  0.33119978    -0.11400
C844        C  0.13580055  0.50966097  0.35962786     0.21200
C845        C  0.16702757  0.52055098  0.36548850    -0.20800
C846        C  0.18629104  0.53339370  0.34356686    -0.11600
C847        C  0.11512284  0.49803230  0.38360805    -0.15800
C848        C  0.08381166  0.50550563  0.38674536    -0.29600
C849        C  0.19491432  0.54860201  0.29193707    -0.03900
C850        C  0.21051816  0.57458283  0.29606475    -0.40400
H851        H  0.13530204  0.52310548  0.28730126     0.12300
H852        H  0.10079473  0.50168584  0.32611911     0.12000
H853        H  0.17613399  0.51986251  0.38722649     0.11400
H854        H  0.21015531  0.54209693  0.34867089     0.11700
H855        H  0.12660082  0.48565239  0.40045847     0.14400
H856        H  0.07326310  0.52022250  0.37123715     0.13200
H857        H  0.19544142  0.53810025  0.27069461     0.10800
H858        H  0.20745570  0.58636276  0.31652966     0.12900
C859        C  0.25309697  0.77735361  0.26849287     0.18900
C860        C  0.28083606  0.75979008  0.26611843    -0.19100
C861        C  0.27799992  0.72887140  0.26639140    -0.11400
C862        C  0.24728692  0.71497940  0.26952288     0.21200
C863        C  0.21971541  0.73259361  0.27305158    -0.20800
C864        C  0.22250294  0.76344752  0.27238411    -0.11600
C865        C  0.24312584  0.68228283  0.26997270    -0.15800
C866        C  0.26287499  0.66375078  0.25521489    -0.29600
C867        C  0.25674469  0.81006791  0.26727146    -0.03900
C868        C  0.23400830  0.82724178  0.25598066    -0.40400
H869        H  0.30470909  0.77002284  0.26361179     0.12300
H870        H  0.29986276  0.71595893  0.26455578     0.12000
H871        H  0.19586298  0.72242205  0.27599384     0.11400
H872        H  0.20072833  0.77634296  0.27527919     0.11700
H873        H  0.22182979  0.67329492  0.28137686     0.14400
H874        H  0.28281583  0.67253079  0.24192162     0.13200
H875        H  0.27940549  0.82005967  0.27438677     0.10800
H876        H  0.21237170  0.81714181  0.24692009     0.12900
loop_ 
_geom_bond_atom_site_label_1 
_geom_bond_atom_site_label_2 
_geom_bond_distance 
_geom_bond_site_symmetry_2 
_ccdc_geom_bond_type 
C1            N2   1.357       .  A
C1            N6   1.359       .  A
C1          C850   1.472       .  S
N2            C3   1.359       .  A
C3            N4   1.358       .  A
C3          C866   1.478       .  S
N4            C5   1.361       .  A
C5            N6   1.358       .  A
C5          C832   1.479       .  S
C7            N8   1.359       .  A
C7           N12   1.358       .  A
C7          C796   1.477       .  S
N8            C9   1.356       .  A
C9           N10   1.358       .  A
C9          C868   1.476       .  S
N10          C11   1.361       .  A
C11          N12   1.359       .  A
C11         C812   1.478       .  S
Zr13         O14   2.442       .  S
Zr13         O15   2.448       .  S
Zr13         O16   2.449       .  S
Zr13         O19   2.448   1_545  S
Zr13         O21   2.386       .  S
Zr13         O22   2.385   1_545  S
Zr13         O23   2.414   1_545  S
Zr13         O24   2.404   1_545  S
O14          H70   0.990       .  S
O14          H78   0.990       .  S
O15          C35   1.285       .  A
O16          C37   1.285       .  A
O17         Zr27   2.409       .  S
O17          C36   1.279       .  A
O18         Zr26   2.443       .  S
O18          C37   1.287       .  A
O19          C36   1.287       .  A
O20         Zr28   2.421   1_545  S
O20          C35   1.281       .  A
O21         Zr26   2.400       .  S
O21         Zr28   2.384   1_545  S
O22         Zr27   2.393       .  S
O22         Zr28   2.373       .  S
O22          H57   0.965       .  S
O23         Zr26   2.403   1_565  S
O23         Zr43   2.390       .  S
O23          H60   0.966   1_565  S
O24         Zr27   2.388       .  S
O24         Zr43   2.393       .  S
Zr25         O50   2.442       .  S
Zr25         O44   2.457       .  S
Zr25         O52   2.459       .  S
Zr25         O40   2.435       .  S
Zr25         O31   2.401       .  S
Zr25         O32   2.417       .  S
Zr25         O33   2.384       .  S
Zr25         O34   2.384       .  S
Zr26         O45   2.438       .  S
Zr26         O38   2.435       .  S
Zr26         O39   2.436   1_545  S
Zr26         O32   2.404   1_545  S
Zr26         O33   2.399   1_545  S
Zr27         O29   2.434       .  S
Zr27         O51   2.440       .  S
Zr27         O53   2.416       .  S
Zr27         O31   2.389       .  S
Zr27         O34   2.391       .  S
Zr28         O54   2.436       .  S
Zr28         O55   2.436       .  S
Zr28         O30   2.438   1_565  S
Zr28         O31   2.391       .  S
Zr28         O32   2.394       .  S
O29          H66   0.990       .  S
O30          H61   0.991       .  S
O30          H75   0.990       .  S
O32          H58   0.965       .  S
O33         Zr43   2.378       .  S
O34         Zr43   2.382       .  S
O34          H59   0.967       .  S
C35         C742   1.480       .  S
C36         C814   1.472       .  S
C37         C704   1.486       .  S
O38          H74   0.990       .  S
O39          C41   1.286       .  A
O40          C41   1.284       .  A
C41         C776   1.477       .  S
O42         Zr43   2.439       .  S
O42          H71   0.990       .  S
Zr43         O46   2.439       .  S
Zr43         O47   2.439       .  S
Zr43         O48   2.414       .  S
O44          C49   1.287       .  A
O45          H62   0.990       .  S
O45          H77   0.990       .  S
O46          H63   0.990       .  S
O47          H67   0.990       .  S
O47          H76   0.990       .  S
O48          C49   1.280       .  A
C49         C758   1.480       .  S
O50          H69   0.991       .  S
O50          H73   0.990       .  S
O51          H65   0.990       .  S
O51          H72   0.990       .  S
O52          C56   1.287       .  A
O53          C56   1.281       .  A
O54          H64   0.990       .  S
O55          H68   0.990       .  S
C56         C724   1.479       .  S
C79          N80   1.366       .  A
C79          N84   1.353       .  A
C79         C668   1.477       .  S
N80          C81   1.368       .  A
C81          N82   1.362       .  A
C81         C650   1.488       .  S
N82          C83   1.355       .  A
C83          N84   1.352       .  A
C83         C686   1.475       .  S
C85          N86   1.367       .  A
C85          N90   1.356       .  A
C85         C778   1.477       .  S
N86          C87   1.366       .  A
C87          N88   1.358       .  A
C87         C634   1.484       .  S
N88          C89   1.350       .  A
C89          N90   1.354       .  A
C89         C688   1.472       .  S
C91          N92   1.359       .  A
C91          N96   1.369       .  A
C91         C740   1.491       .  S
N92          C93   1.351       .  A
C93          N94   1.349       .  A
C93         C614   1.472       .  S
N94          C95   1.359       .  A
C95          N96   1.369       .  A
C95         C596   1.494       .  S
C97          N98   1.371       .  A
C97         N102   1.356       .  A
C97         C578   1.481       .  S
N98          C99   1.372       .  A
C99         N100   1.362       .  A
C99         C560   1.498       .  S
N100        C101   1.351       .  A
C101        N102   1.351       .  A
C101        C616   1.476       .  S
Zr103       O104   2.441       .  S
Zr103       O105   2.433       .  S
Zr103       O106   2.442       .  S
Zr103       O109   2.438       .  S
Zr103       O111   2.383       .  S
Zr103       O112   2.384   1_455  S
Zr103       O113   2.413       .  S
Zr103       O114   2.399       .  S
O104        H160   0.990       .  S
O104        H168   0.990       .  S
O105        C125   1.281   1_455  A
O106        C127   1.284       .  A
O107       Zr117   2.417       .  S
O107        C126   1.281       .  A
O108       Zr116   2.445       .  S
O108        C127   1.287       .  A
O109        C126   1.286       .  A
O110       Zr118   2.442       .  S
O110        C125   1.285       .  A
O111       Zr116   2.402       .  S
O111       Zr118   2.375   1_455  S
O112       Zr117   2.392   1_655  S
O112       Zr118   2.379       .  S
O112        H147   0.966       .  S
O113       Zr116   2.410       .  S
O113       Zr133   2.400       .  S
O113        H150   0.966       .  S
O114       Zr117   2.395       .  S
O114       Zr133   2.392       .  S
Zr115       O140   2.444       .  S
Zr115       O134   2.440       .  S
Zr115       O142   2.434       .  S
Zr115       O130   2.414       .  S
Zr115       O121   2.403       .  S
Zr115       O122   2.409       .  S
Zr115       O123   2.382   1_655  S
Zr115       O124   2.375   1_655  S
Zr116       O135   2.437       .  S
Zr116       O128   2.434   1_455  S
Zr116       O129   2.461   1_455  S
Zr116       O122   2.397   1_455  S
Zr116       O123   2.391       .  S
Zr117       O119   2.434       .  S
Zr117       O141   2.434   1_455  S
Zr117       O143   2.428   1_455  S
Zr117       O121   2.385   1_455  S
Zr117       O124   2.387       .  S
Zr118       O144   2.435       .  S
Zr118       O145   2.435       .  S
Zr118       O120   2.438       .  S
Zr118       O121   2.408       .  S
Zr118       O122   2.398       .  S
O119        H156   0.989       .  S
O120        H151   0.990       .  S
O120        H165   0.990       .  S
O122        H148   0.965       .  S
O123       Zr133   2.376       .  S
O124       Zr133   2.377       .  S
O124        H149   0.967       .  S
C125        C580   1.484       .  S
C126        C848   1.472       .  S
C127        C506   1.485       .  S
O128        H164   0.990   1_655  S
O129        C131   1.291       .  A
O130        C131   1.281       .  A
C131        C670   1.479       .  S
O132       Zr133   2.436       .  S
O132        H161   0.990       .  S
Zr133       O136   2.434       .  S
Zr133       O137   2.439       .  S
Zr133       O138   2.436       .  S
O134        C139   1.285   1_655  A
O135        H152   0.990       .  S
O135        H167   0.990       .  S
O136        H153   0.990       .  S
O137        H157   0.990       .  S
O137        H166   0.990       .  S
O138        C139   1.286       .  A
C139        C542   1.487       .  S
O140        H159   0.990       .  S
O140        H163   0.990       .  S
O141        H155   0.990       .  S
O141        H162   0.990       .  S
O142        C146   1.284       .  A
O143        C146   1.285       .  A
O144        H154   0.990       .  S
O145        H158   0.990       .  S
C146        C526   1.480       .  S
C169        N170   1.364       .  A
C169        N174   1.361       .  A
C169        C760   1.484       .  S
N170        C171   1.362       .  A
C171        N172   1.361       .  A
C171        C470   1.489       .  S
N172        C173   1.355       .  A
C173        N174   1.357       .  A
C173        C488   1.478       .  S
C175        N176   1.366       .  A
C175        N180   1.362       .  A
C175        C452   1.488       .  S
N176        C177   1.365       .  A
C177        N178   1.358       .  A
C177        C544   1.486       .  S
N178        C179   1.352       .  A
C179        N180   1.353       .  A
C179        C490   1.477       .  S
Zr181       O182   2.441       .  S
Zr181       O183   2.446       .  S
Zr181       O184   2.429       .  S
Zr181       O187   2.440   1_545  S
Zr181       O189   2.384   1_455  S
Zr181       O190   2.380   1_445  S
Zr181       O191   2.410   1_554  S
Zr181       O192   2.398   1_545  S
O182        H238   0.990       .  S
O182        H246   0.990       .  S
O183        C203   1.285   1_455  A
O184        C205   1.282   1_554  A
O185       Zr195   2.418   1_455  S
O185        C204   1.282       .  A
O186       Zr194   2.441   1_455  S
O186        C205   1.287       .  A
O187        C204   1.287       .  A
O188       Zr196   2.442       .  S
O188        C203   1.287       .  A
O189       Zr194   2.393   1_554  S
O189       Zr196   2.373       .  S
O190       Zr195   2.392       .  S
O190       Zr196   2.374   1_565  S
O190        H225   0.966       .  S
O191       Zr194   2.399   1_455  S
O191       Zr211   2.387   1_545  S
O191        H228   0.965       .  S
O192       Zr195   2.384   1_455  S
O192       Zr211   2.386   1_554  S
Zr193       O218   2.442       .  S
Zr193       O212   2.465       .  S
Zr193       O220   2.444       .  S
Zr193       O208   2.443       .  S
Zr193       O199   2.408   1_556  S
Zr193       O200   2.419   1_565  S
Zr193       O201   2.383       .  S
Zr193       O202   2.380       .  S
Zr194       O213   2.437   1_655  S
Zr194       O206   2.435       .  S
Zr194       O207   2.437       .  S
Zr194       O200   2.400       .  S
Zr194       O201   2.395   1_545  S
Zr195       O197   2.435   1_655  S
Zr195       O219   2.435       .  S
Zr195       O221   2.422       .  S
Zr195       O199   2.388       .  S
Zr195       O202   2.389   1_554  S
Zr196       O222   2.437   1_545  S
Zr196       O223   2.435       .  S
Zr196       O198   2.439       .  S
Zr196       O199   2.400   1_545  S
Zr196       O200   2.403   1_554  S
O197        H234   0.990       .  S
O198        H229   0.990       .  S
O198        H243   0.990       .  S
O200        H226   0.965       .  S
O201       Zr211   2.380   1_655  S
O202       Zr211   2.377   1_655  S
O202        H227   0.967       .  S
C203        C562   1.496       .  S
C204        C794   1.476       .  S
C205        C436   1.477       .  S
O206        H242   0.990       .  S
O207        C209   1.285       .  A
O208        C209   1.285   1_565  A
C209        C632   1.481       .  S
O210       Zr211   2.438       .  S
O210        H239   0.990       .  S
Zr211       O214   2.437       .  S
Zr211       O215   2.439       .  S
Zr211       O216   2.402       .  S
O212        C217   1.288       .  A
O213        H230   0.990       .  S
O213        H245   0.990       .  S
O214        H231   0.990       .  S
O215        H235   0.990       .  S
O215        H244   0.990   1_556  S
O216        C217   1.280   1_455  A
C217        C454   1.490       .  S
O218        H237   0.990       .  S
O218        H241   0.990       .  S
O219        H233   0.990       .  S
O219        H240   0.990       .  S
O220        C224   1.287   1_556  A
O221        C224   1.282       .  A
O222        H232   0.990       .  S
O223        H236   0.990   1_545  S
C224        C418   1.476       .  S
C247        N248   1.356       .  A
C247        N252   1.369       .  A
C247        C508   1.480       .  S
N248        C249   1.353       .  A
C249        N250   1.351       .  A
C249        C398   1.471       .  S
N250        C251   1.359       .  A
C251        N252   1.368       .  A
C251        C706   1.488       .  S
C253        N254   1.356       .  A
C253        N258   1.362       .  A
C253        C434   1.472       .  S
N254        C255   1.356       .  A
C255        N256   1.353       .  A
C255        C400   1.473       .  S
N256        C257   1.360       .  A
C257        N258   1.360       .  A
C257        C382   1.476       .  S
Zr259       O260   2.440       .  S
Zr259       O261   2.455       .  S
Zr259       O262   2.455       .  S
Zr259       O265   2.442       .  S
Zr259       O267   2.382       .  S
Zr259       O268   2.386       .  S
Zr259       O269   2.412       .  S
Zr259       O270   2.410   1_556  S
O260        H316   0.990       .  S
O260        H324   0.990       .  S
O261        C281   1.286       .  A
O262        C283   1.288       .  A
O263       Zr273   2.420       .  S
O263        C282   1.284       .  A
O264       Zr272   2.430       .  S
O264        C283   1.284       .  A
O265        C282   1.285   1_556  A
O266       Zr274   2.418       .  S
O266        C281   1.283       .  A
O267       Zr272   2.392       .  S
O267       Zr274   2.378       .  S
O268       Zr273   2.391   1_556  S
O268       Zr274   2.377       .  S
O268        H303   0.967       .  S
O269       Zr272   2.399       .  S
O269       Zr289   2.394   1_556  S
O269        H306   0.966       .  S
O270       Zr273   2.392       .  S
O270       Zr289   2.398       .  S
Zr271       O296   2.442       .  S
Zr271       O290   2.448       .  S
Zr271       O298   2.447       .  S
Zr271       O286   2.434       .  S
Zr271       O277   2.405       .  S
Zr271       O278   2.408   1_554  S
Zr271       O279   2.385       .  S
Zr271       O280   2.388       .  S
Zr272       O291   2.436       .  S
Zr272       O284   2.435       .  S
Zr272       O285   2.433       .  S
Zr272       O278   2.393       .  S
Zr272       O279   2.392   1_556  S
Zr273       O275   2.436       .  S
Zr273       O297   2.436       .  S
Zr273       O299   2.419       .  S
Zr273       O277   2.392       .  S
Zr273       O280   2.392       .  S
Zr274       O300   2.436       .  S
Zr274       O301   2.437       .  S
Zr274       O276   2.437       .  S
Zr274       O277   2.395   1_556  S
Zr274       O278   2.390       .  S
O275        H312   0.990       .  S
O276        H307   0.990       .  S
O276        H321   0.990       .  S
O278        H304   0.964       .  S
O279       Zr289   2.372       .  S
O280       Zr289   2.376       .  S
O280        H305   0.967       .  S
C281        C472   1.492       .  S
C282        C362   1.482       .  S
C283        C652   1.484       .  S
O284        H320   0.990       .  S
O285        C287   1.286       .  A
O286        C287   1.284   1_554  A
C287        C380   1.479       .  S
O288       Zr289   2.434       .  S
O288        H317   0.990       .  S
Zr289       O292   2.436       .  S
Zr289       O293   2.437       .  S
Zr289       O294   2.426       .  S
O290        C295   1.286       .  A
O291        H308   0.990       .  S
O291        H323   0.990       .  S
O292        H309   0.990       .  S
O293        H313   0.990       .  S
O293        H322   0.989       .  S
O294        C295   1.284       .  A
C295        C598   1.490       .  S
O296        H315   0.990       .  S
O296        H319   0.991       .  S
O297        H311   0.990       .  S
O297        H318   0.990       .  S
O298        C302   1.286       .  A
O299        C302   1.281       .  A
O300        H310   0.990       .  S
O301        H314   0.990   1_556  S
C302        C830   1.474       .  S
C325        N326   1.363       .  A
C325        N330   1.356       .  A
C325        C524   1.478       .  S
N326        C327   1.362       .  A
C327        N328   1.361       .  A
C327        C722   1.482       .  S
N328        C329   1.358       .  A
C329        N330   1.354       .  A
C329        C346   1.475       .  S
C331        N332   1.363       .  A
C331        N336   1.361       .  A
C331        C416   1.473       .  S
N332        C333   1.360       .  A
C333        N334   1.355       .  A
C333        C364   1.473       .  S
N334        C335   1.353       .  A
C335        N336   1.358       .  A
C335        C344   1.474       .  S
C337        C345   1.483       .  S
C337        C338   1.401       .  A
C337        C342   1.407       .  A
C338        C339   1.397       .  A
C338        H347   1.083       .  S
C339        C340   1.409       .  A
C339        H348   1.082       .  S
C340        C343   1.487       .  S
C340        C341   1.403       .  A
C341        C342   1.400       .  A
C341        H349   1.083       .  S
C342        H350   1.082       .  S
C343        H351   1.087       .  S
C343        C344   1.345       .  D
C344        H352   1.085       .  S
C345        H353   1.087       .  S
C345        C346   1.343       .  D
C346        H354   1.086       .  S
C355        C363   1.487       .  S
C355        C356   1.403       .  A
C355        C360   1.406       .  A
C356        C357   1.403       .  A
C356        H365   1.083       .  S
C357        C358   1.411       .  A
C357        H366   1.080       .  S
C358        C361   1.491       .  S
C358        C359   1.403       .  A
C359        C360   1.394       .  A
C359        H367   1.084       .  S
C360        H368   1.082       .  S
C361        H369   1.087       .  S
C361        C362   1.348       .  D
C362        H370   1.083   1_554  S
C363        H371   1.087       .  S
C363        C364   1.345       .  D
C364        H372   1.086       .  S
C373        C381   1.481       .  S
C373        C374   1.406       .  A
C373        C378   1.401       .  A
C374        C375   1.401       .  A
C374        H383   1.082       .  S
C375        C376   1.410       .  A
C375        H384   1.081       .  S
C376        C379   1.486       .  S
C376        C377   1.402       .  A
C377        C378   1.394       .  A
C377        H385   1.083       .  S
C378        H386   1.084       .  S
C379        H387   1.087       .  S
C379        C380   1.346       .  D
C380        H388   1.085   1_556  S
C381        H389   1.088       .  S
C381        C382   1.345       .  D
C382        H390   1.085       .  S
C391        C399   1.477       .  S
C391        C392   1.401       .  A
C391        C396   1.406       .  A
C392        C393   1.395       .  A
C392        H401   1.083       .  S
C393        C394   1.406       .  A
C393        H402   1.082       .  S
C394        C397   1.480       .  S
C394        C395   1.403       .  A
C395        C396   1.399       .  A
C395        H403   1.083       .  S
C396        H404   1.083       .  S
C397        H405   1.087       .  S
C397        C398   1.344       .  D
C398        H406   1.086       .  S
C399        H407   1.087       .  S
C399        C400   1.342       .  D
C400        H408   1.086       .  S
C409        C417   1.482       .  S
C409        C410   1.403       .  A
C409        C414   1.407       .  A
C410        C411   1.398       .  A
C410        H419   1.083       .  S
C411        C412   1.404       .  A
C411        H420   1.083       .  S
C412        C415   1.477       .  S
C412        C413   1.402       .  A
C413        C414   1.400       .  A
C413        H421   1.083       .  S
C414        H422   1.083       .  S
C415        H423   1.087       .  S
C415        C416   1.343       .  D
C416        H424   1.087       .  S
C417        H425   1.087   1_554  S
C417        C418   1.344       .  D
C418        H426   1.087       .  S
C427        C435   1.485       .  S
C427        C428   1.402       .  A
C427        C432   1.410       .  A
C428        C429   1.397       .  A
C428        H437   1.083       .  S
C429        C430   1.406       .  A
C429        H438   1.082       .  S
C430        C433   1.483       .  S
C430        C431   1.402       .  A
C431        C432   1.399       .  A
C431        H439   1.083       .  S
C432        H440   1.082       .  S
C433        H441   1.087       .  S
C433        C434   1.343       .  D
C434        H442   1.086       .  S
C435        H443   1.087       .  S
C435        C436   1.344       .  D
C436        H444   1.086   1_556  S
C445        C453   1.487       .  S
C445        C446   1.402       .  A
C445        C450   1.409       .  A
C446        C447   1.390       .  A
C446        H455   1.084       .  S
C447        C448   1.402       .  A
C447        H456   1.084       .  S
C448        C451   1.490       .  S
C448        C449   1.411       .  A
C449        C450   1.409       .  A
C449        H457   1.081       .  S
C450        H458   1.082   1_455  S
C451        H459   1.087       .  S
C451        C452   1.350       .  D
C452        H460   1.084       .  S
C453        H461   1.087       .  S
C453        C454   1.352   1_455  D
C454        H462   1.085       .  S
C463        C471   1.490       .  S
C463        C464   1.401       .  A
C463        C468   1.410       .  A
C464        C465   1.391       .  A
C464        H473   1.084       .  S
C465        C466   1.402       .  A
C465        H474   1.084       .  S
C466        C469   1.493       .  S
C466        C467   1.412       .  A
C467        C468   1.412       .  A
C467        H475   1.081       .  S
C468        H476   1.082       .  S
C469        H477   1.087       .  S
C469        C470   1.349       .  D
C470        H478   1.084       .  S
C471        H479   1.087       .  S
C471        C472   1.351       .  D
C472        H480   1.085       .  S
C481        C489   1.482       .  S
C481        C482   1.403       .  A
C481        C486   1.406       .  A
C482        C483   1.398       .  A
C482        H491   1.083       .  S
C483        C484   1.407       .  A
C483        H492   1.082       .  S
C484        C487   1.484       .  S
C484        C485   1.403       .  A
C485        C486   1.399       .  A
C485        H493   1.083       .  S
C486        H494   1.082       .  S
C487        H495   1.087       .  S
C487        C488   1.346       .  D
C488        H496   1.086       .  S
C489        H497   1.087       .  S
C489        C490   1.347       .  D
C490        H498   1.086       .  S
C499        C507   1.497       .  S
C499        C500   1.404       .  A
C499        C504   1.410       .  A
C500        C501   1.403       .  A
C500        H509   1.083       .  S
C501        C502   1.410       .  A
C501        H510   1.080       .  S
C502        C505   1.496       .  S
C502        C503   1.404       .  A
C503        C504   1.400       .  A
C503        H511   1.083       .  S
C504        H512   1.081       .  S
C505        H513   1.087       .  S
C505        C506   1.349       .  D
C506        H514   1.084       .  S
C507        H515   1.086       .  S
C507        C508   1.345       .  D
C508        H516   1.085       .  S
C517        C525   1.490       .  S
C517        C518   1.404       .  A
C517        C522   1.408       .  A
C518        C519   1.398       .  A
C518        H527   1.084       .  S
C519        C520   1.409       .  A
C519        H528   1.081       .  S
C520        C523   1.492       .  S
C520        C521   1.404       .  A
C521        C522   1.400       .  A
C521        H529   1.083       .  S
C522        H530   1.080       .  S
C523        H531   1.087       .  S
C523        C524   1.346       .  D
C524        H532   1.084       .  S
C525        H533   1.087       .  S
C525        C526   1.349       .  D
C526        H534   1.084       .  S
C535        C543   1.489       .  S
C535        C536   1.403       .  A
C535        C540   1.408       .  A
C536        C537   1.393       .  A
C536        H545   1.084       .  S
C537        C538   1.402       .  A
C537        H546   1.084       .  S
C538        C541   1.493       .  S
C538        C539   1.412       .  A
C539        C540   1.408       .  A
C539        H547   1.081       .  S
C540        H548   1.081       .  S
C541        H549   1.087       .  S
C541        C542   1.348       .  D
C542        H550   1.084   1_455  S
C543        H551   1.087       .  S
C543        C544   1.351       .  D
C544        H552   1.084       .  S
C553        C561   1.499       .  S
C553        C554   1.402       .  A
C553        C558   1.414       .  A
C554        C555   1.392       .  A
C554        H563   1.084       .  S
C555        C556   1.404       .  A
C555        H564   1.084       .  S
C556        C559   1.497       .  S
C556        C557   1.411       .  A
C557        C558   1.416       .  A
C557        H565   1.082       .  S
C558        H566   1.081       .  S
C559        H567   1.087       .  S
C559        C560   1.355       .  D
C560        H568   1.085       .  S
C561        H569   1.087       .  S
C561        C562   1.351       .  D
C562        H570   1.085   1_655  S
C571        C579   1.493       .  S
C571        C572   1.402       .  A
C571        C576   1.411       .  A
C572        C573   1.398       .  A
C572        H581   1.083       .  S
C573        C574   1.409       .  A
C573        H582   1.083       .  S
C574        C577   1.496       .  S
C574        C575   1.404       .  A
C575        C576   1.406       .  A
C575        H583   1.083       .  S
C576        H584   1.082   1_655  S
C577        H585   1.086       .  S
C577        C578   1.345       .  D
C578        H586   1.087       .  S
C579        H587   1.087       .  S
C579        C580   1.346       .  D
C580        H588   1.085   1_655  S
C589        C597   1.491       .  S
C589        C590   1.401       .  A
C589        C594   1.411       .  A
C590        C591   1.392       .  A
C590        H599   1.084       .  S
C591        C592   1.404       .  A
C591        H600   1.084       .  S
C592        C595   1.492       .  S
C592        C593   1.409       .  A
C593        C594   1.410       .  A
C593        H601   1.081       .  S
C594        H602   1.081       .  S
C595        H603   1.086       .  S
C595        C596   1.355       .  D
C596        H604   1.084       .  S
C597        H605   1.087       .  S
C597        C598   1.350       .  D
C598        H606   1.085       .  S
C607        C615   1.480       .  S
C607        C608   1.402       .  A
C607        C612   1.407       .  A
C608        C609   1.397       .  A
C608        H617   1.083       .  S
C609        C610   1.406       .  A
C609        H618   1.083       .  S
C610        C613   1.480       .  S
C610        C611   1.402       .  A
C611        C612   1.399       .  A
C611        H619   1.083       .  S
C612        H620   1.083       .  S
C613        H621   1.087       .  S
C613        C614   1.344       .  D
C614        H622   1.086       .  S
C615        H623   1.087       .  S
C615        C616   1.345       .  D
C616        H624   1.086       .  S
C625        C633   1.487       .  S
C625        C626   1.404       .  A
C625        C630   1.407       .  A
C626        C627   1.395       .  A
C626        H635   1.084       .  S
C627        C628   1.407       .  A
C627        H636   1.081       .  S
C628        C631   1.493       .  S
C628        C629   1.407   1_545  A
C629        C630   1.404   1_565  A
C629        H637   1.083       .  S
C630        H638   1.081       .  S
C631        H639   1.087   1_545  S
C631        C632   1.351       .  D
C632        H640   1.084       .  S
C633        H641   1.087       .  S
C633        C634   1.351       .  D
C634        H642   1.084       .  S
C643        C651   1.496       .  S
C643        C644   1.406       .  A
C643        C648   1.408       .  A
C644        C645   1.404       .  A
C644        H653   1.083       .  S
C645        C646   1.407       .  A
C645        H654   1.082       .  S
C646        C649   1.492       .  S
C646        C647   1.405       .  A
C647        C648   1.400       .  A
C647        H655   1.084       .  S
C648        H656   1.081       .  S
C649        H657   1.087       .  S
C649        C650   1.352       .  D
C650        H658   1.085       .  S
C651        H659   1.087       .  S
C651        C652   1.350       .  D
C652        H660   1.084       .  S
C661        C669   1.498       .  S
C661        C662   1.401       .  A
C661        C666   1.413       .  A
C662        C663   1.398       .  A
C662        H671   1.084       .  S
C663        C664   1.413       .  A
C663        H672   1.079       .  S
C664        C667   1.499       .  S
C664        C665   1.403       .  A
C665        C666   1.402       .  A
C665        H673   1.083       .  S
C666        H674   1.079       .  S
C667        H675   1.087       .  S
C667        C668   1.344       .  D
C668        H676   1.082       .  S
C669        H677   1.087       .  S
C669        C670   1.345       .  D
C670        H678   1.082       .  S
C679        C687   1.479       .  S
C679        C680   1.401       .  A
C679        C684   1.406       .  A
C680        C681   1.395       .  A
C680        H689   1.083       .  S
C681        C682   1.407       .  A
C681        H690   1.081       .  S
C682        C685   1.483       .  S
C682        C683   1.404       .  A
C683        C684   1.397       .  A
C683        H691   1.084       .  S
C684        H692   1.082       .  S
C685        H693   1.087       .  S
C685        C686   1.348       .  D
C686        H694   1.084       .  S
C687        H695   1.087       .  S
C687        C688   1.343       .  D
C688        H696   1.086       .  S
C697        C705   1.492       .  S
C697        C698   1.405       .  A
C697        C702   1.408       .  A
C698        C699   1.396       .  A
C698        H707   1.084       .  S
C699        C700   1.402       .  A
C699        H708   1.084       .  S
C700        C703   1.494       .  S
C700        C701   1.412       .  A
C701        C702   1.406       .  A
C701        H709   1.081       .  S
C702        H710   1.081       .  S
C703        H711   1.087       .  S
C703        C704   1.347       .  D
C704        H712   1.085       .  S
C705        H713   1.087       .  S
C705        C706   1.353       .  D
C706        H714   1.084       .  S
C715        C723   1.494       .  S
C715        C716   1.406       .  A
C715        C720   1.409       .  A
C716        C717   1.404       .  A
C716        H725   1.083       .  S
C717        C718   1.407       .  A
C717        H726   1.082       .  S
C718        C721   1.487       .  S
C718        C719   1.402       .  A
C719        C720   1.397       .  A
C719        H727   1.083       .  S
C720        H728   1.081       .  S
C721        H729   1.087       .  S
C721        C722   1.347       .  D
C722        H730   1.086       .  S
C723        H731   1.087       .  S
C723        C724   1.348       .  D
C724        H732   1.085       .  S
C733        C741   1.495       .  S
C733        C734   1.408       .  A
C733        C738   1.406       .  A
C734        C735   1.407       .  A
C734        H743   1.083       .  S
C735        C736   1.408       .  A
C735        H744   1.081       .  S
C736        C739   1.492       .  S
C736        C737   1.405       .  A
C737        C738   1.394       .  A
C737        H745   1.084       .  S
C738        H746   1.081       .  S
C739        H747   1.087       .  S
C739        C740   1.354       .  D
C740        H748   1.084       .  S
C741        H749   1.086       .  S
C741        C742   1.350       .  D
C742        H750   1.085       .  S
C751        C759   1.491       .  S
C751        C752   1.404       .  A
C751        C756   1.409       .  A
C752        C753   1.397       .  A
C752        H761   1.084       .  S
C753        C754   1.408       .  A
C753        H762   1.082       .  S
C754        C757   1.493       .  S
C754        C755   1.405       .  A
C755        C756   1.404       .  A
C755        H763   1.083       .  S
C756        H764   1.081       .  S
C757        H765   1.087       .  S
C757        C758   1.347       .  D
C758        H766   1.086       .  S
C759        H767   1.087       .  S
C759        C760   1.350       .  D
C760        H768   1.084       .  S
C769        C777   1.490       .  S
C769        C770   1.401   1_545  A
C769        C774   1.409       .  A
C770        C771   1.400       .  A
C770        H779   1.083       .  S
C771        C772   1.411   1_565  A
C771        H780   1.080       .  S
C772        C775   1.491       .  S
C772        C773   1.403       .  A
C773        C774   1.398       .  A
C773        H781   1.084       .  S
C774        H782   1.082       .  S
C775        H783   1.087       .  S
C775        C776   1.346   1_545  D
C776        H784   1.084       .  S
C777        H785   1.086       .  S
C777        C778   1.343       .  D
C778        H786   1.086       .  S
C787        C795   1.485       .  S
C787        C788   1.403       .  A
C787        C792   1.407       .  A
C788        C789   1.397       .  A
C788        H797   1.084       .  S
C789        C790   1.409       .  A
C789        H798   1.081       .  S
C790        C793   1.489       .  S
C790        C791   1.404       .  A
C791        C792   1.399       .  A
C791        H799   1.083       .  S
C792        H800   1.081       .  S
C793        H801   1.087       .  S
C793        C794   1.346       .  D
C794        H802   1.084       .  S
C795        H803   1.087       .  S
C795        C796   1.346       .  D
C796        H804   1.084       .  S
C805        C813   1.489       .  S
C805        C806   1.403       .  A
C805        C810   1.409       .  A
C806        C807   1.402       .  A
C806        H815   1.083       .  S
C807        C808   1.410       .  A
C807        H816   1.081       .  S
C808        C811   1.486       .  S
C808        C809   1.400       .  A
C809        C810   1.393       .  A
C809        H817   1.084       .  S
C810        H818   1.081       .  S
C811        H819   1.087       .  S
C811        C812   1.345       .  D
C812        H820   1.084       .  S
C813        H821   1.087       .  S
C813        C814   1.344       .  D
C814        H822   1.085       .  S
C823        C831   1.490       .  S
C823        C824   1.402       .  A
C823        C828   1.410       .  A
C824        C825   1.394       .  A
C824        H833   1.084       .  S
C825        C826   1.409       .  A
C825        H834   1.081       .  S
C826        C829   1.491       .  S
C826        C827   1.404       .  A
C827        C828   1.403       .  A
C827        H835   1.083       .  S
C828        H836   1.080       .  S
C829        H837   1.087       .  S
C829        C830   1.346       .  D
C830        H838   1.084       .  S
C831        H839   1.087       .  S
C831        C832   1.346       .  D
C832        H840   1.083       .  S
C841        C849   1.478       .  S
C841        C842   1.402       .  A
C841        C846   1.405       .  A
C842        C843   1.399       .  A
C842        H851   1.083       .  S
C843        C844   1.406       .  A
C843        H852   1.083       .  S
C844        C847   1.477       .  S
C844        C845   1.401       .  A
C845        C846   1.397       .  A
C845        H853   1.083       .  S
C846        H854   1.083       .  S
C847        H855   1.087       .  S
C847        C848   1.342       .  D
C848        H856   1.087       .  S
C849        H857   1.087       .  S
C849        C850   1.343       .  D
C850        H858   1.087       .  S
C859        C867   1.485       .  S
C859        C860   1.403       .  A
C859        C864   1.407       .  A
C860        C861   1.400       .  A
C860        H869   1.083       .  S
C861        C862   1.407       .  A
C861        H870   1.082       .  S
C862        C865   1.485       .  S
C862        C863   1.403       .  A
C863        C864   1.397       .  A
C863        H871   1.083       .  S
C864        H872   1.082       .  S
C865        H873   1.087       .  S
C865        C866   1.346       .  D
C866        H874   1.086       .  S
C867        H875   1.087       .  S
C867        C868   1.345       .  D
C868        H876   1.086       .  S
