geometry optimzed in LAMMPS
_audit_creation_date              2020-12-01 
_audit_creation_method            'lammps2cif' 
_symmetry_space_group_name_H-M    'P1' 
_symmetry_Int_Tables_number       1 
_symmetry_cell_setting            triclinic 
loop_ 
_symmetry_equiv_pos_as_xyz 
  x,y,z 
_cell_length_a                    41.16324194 
_cell_length_b                    41.19418977883716 
_cell_length_c                    38.93587381231691 
_cell_angle_alpha                 90.09786426532177 
_cell_angle_beta                  89.94000718739511 
_cell_angle_gamma                 120.09113730835792 
loop_ 
_atom_site_label 
_atom_site_type_symbol 
_atom_site_fract_x 
_atom_site_fract_y 
_atom_site_fract_z 
_atom_site_charge 
C1          C  0.48019977  0.71539431  0.10484644     0.78800
N2          N  0.47950234  0.74188516  0.08466652    -0.79500
C3          C  0.47466510  0.76924394  0.09862777     0.81300
N4          N  0.47128619  0.77069602  0.13304382    -0.79400
C5          C  0.47230124  0.74502417  0.15377037     0.81300
N6          N  0.47643676  0.71684722  0.13967407    -0.81200
C7          C  0.47515281  0.71151735  0.30693361     0.78800
N8          N  0.47169662  0.70678586  0.27251168    -0.79500
C9          C  0.47164594  0.73305505  0.25193454     0.81300
N10         N  0.47460223  0.76482241  0.26619263    -0.79400
C11         C  0.47835953  0.76998777  0.30102899     0.81300
N12         N  0.47893551  0.74329158  0.32108911    -0.81200
C13         C  0.22840387  0.76728292  0.30822057     0.78800
N14         N  0.19637489  0.73997912  0.32259288    -0.79500
C15         C  0.16837579  0.71368869  0.30274018     0.81300
N16         N  0.17260733  0.71546183  0.26771024    -0.79400
C17         C  0.20484599  0.74360693  0.25324467     0.81300
N18         N  0.23228537  0.76889429  0.27373245    -0.81200
C19         C  0.22266931  0.77063493  0.10559041     0.78800
N20         N  0.19662205  0.74271182  0.08552786    -0.79500
C21         C  0.16941858  0.71047413  0.09959551     0.81300
N22         N  0.16757104  0.70622753  0.13403967    -0.79400
C23         C  0.19267836  0.73354646  0.15475913     0.81300
N24         N  0.22078001  0.76601902  0.14057260    -0.81200
C25         C  0.17033286  0.46316375  0.10550058     0.78800
N26         N  0.17522605  0.46591687  0.14041178    -0.79500
C27         C  0.20749540  0.46971369  0.15439799     0.81300
N28         N  0.23444882  0.47136271  0.13346942    -0.79400
C29         C  0.22985628  0.46882017  0.09900783     0.81300
N30         N  0.19772908  0.46431514  0.08518483    -0.81200
C31         C  0.16985556  0.46458256  0.30784633     0.78800
N32         N  0.19702028  0.45953945  0.32203053    -0.79500
C33         C  0.22380359  0.45884337  0.30209324     0.81300
N34         N  0.22279543  0.46280909  0.26720625    -0.79400
C35         C  0.19484502  0.46718721  0.25288136     0.81300
N36         N  0.16896289  0.46819185  0.27342632    -0.81200
C37         C  0.74742967  0.24615102  0.30294755     0.78800
N38         N  0.71951608  0.22058988  0.32325735    -0.79500
C39         C  0.68694345  0.19362715  0.30944556     0.81300
N40         N  0.68238935  0.19147673  0.27499112    -0.79400
C41         C  0.70980225  0.21612913  0.25404971     0.81300
N42         N  0.74253931  0.24403475  0.26802113    -0.81200
C43         C  0.74534978  0.24912263  0.10042019     0.78800
N44         N  0.74656031  0.25377911  0.13483334    -0.79500
C45         C  0.72121113  0.22660597  0.15550535     0.81300
N46         N  0.69341129  0.19398484  0.14128476    -0.79400
C47         C  0.69209891  0.18895478  0.10637388     0.81300
N48         N  0.71845313  0.21663132  0.08632564    -0.81200
C49         C  0.68303887  0.49190637  0.09848358     0.78800
N50         N  0.67829751  0.48931549  0.13295745    -0.79500
C51         C  0.70598431  0.49279698  0.15395280     0.81300
N52         N  0.73898212  0.49840046  0.14003985    -0.79400
C53         C  0.74390120  0.50106908  0.10517687     0.81300
N54         N  0.71585924  0.49814799  0.08480362    -0.81200
C55         C  0.69144494  0.50559825  0.30182810     0.78800
N56         N  0.71842964  0.50494307  0.32141003    -0.79500
C57         C  0.74602573  0.50089909  0.30676321     0.81300
N58         N  0.74713161  0.49823807  0.27224796    -0.79400
C59         C  0.72090518  0.49901500  0.25208777     0.81300
N60         N  0.69254632  0.50240701  0.26684991    -0.81200
C61         C  0.43816576  0.19483956  0.30213017     0.78800
N62         N  0.44226090  0.19995585  0.26725255    -0.79500
C63         C  0.44701947  0.23248912  0.25305136     0.81300
N64         N  0.44832685  0.25942963  0.27371813    -0.79400
C65         C  0.44462358  0.25473715  0.30811660     0.81300
N66         N  0.43910891  0.22233048  0.32216756    -0.81200
C67         C  0.44660605  0.19739936  0.09945996     0.78800
N68         N  0.44105229  0.22427930  0.08538399    -0.79500
C69         C  0.43996731  0.25078401  0.10543743     0.81300
N70         N  0.44379818  0.24958928  0.14032713    -0.79400
C71         C  0.44866607  0.22189944  0.15453423     0.81300
N72         N  0.45024431  0.19641655  0.13386566    -0.81200
N73         N  0.47376454  0.54148819  0.39109485    -0.07500
N74         N  0.46285899  0.55898136  0.36997375    -0.59700
N75         N  0.54081975  0.52219374  0.41248853    -0.07200
N76         N  0.57545432  0.53000842  0.40521225    -0.61800
N77         N  0.51741149  0.49960760  0.38903857    -0.06800
N78         N  0.53540872  0.49179195  0.36535216    -0.59600
N79         N  0.49669924  0.56472989  0.41450712    -0.06500
N80         N  0.50182651  0.59875656  0.40973993    -0.62100
C81         C  0.48040240  0.59455064  0.38183866     0.94600
C82         C  0.57157632  0.51076307  0.37567502     0.94400
N83         N  0.51630763  0.49736343  0.01705930    -0.07700
N84         N  0.53286684  0.48447706  0.03713006    -0.60200
N85         N  0.49822523  0.56508191  0.49582923    -0.05800
N86         N  0.50641946  0.59977582  0.50323931    -0.61500
N87         N  0.47510876  0.54165319  0.01895676    -0.07700
N88         N  0.46730985  0.55969138  0.04259133    -0.60500
N89         N  0.53975534  0.51992645  0.49370565    -0.05500
N90         N  0.57299547  0.52277262  0.49739266    -0.61600
Mn91       Mn  0.52027540  0.54438487  0.45417644     1.18400
C92         C  0.56811673  0.50056393  0.02467528     0.96700
C93         C  0.48678769  0.59587209  0.03252859     0.97400
N94         N  0.44212397  0.42343809  0.39076543    -0.07800
N95         N  0.45402724  0.40649255  0.36995232    -0.64100
N96         N  0.37459788  0.44189065  0.41235613    -0.06600
N97         N  0.33986716  0.43371910  0.40493584    -0.64700
N98         N  0.39802269  0.46494821  0.38917120    -0.07300
N99         N  0.37993613  0.47268967  0.36556441    -0.64300
N100        N  0.41953329  0.40004652  0.41424091    -0.06200
N101        N  0.41560238  0.36645310  0.40979398    -0.65000
Mn102      Mn  0.45776827  0.48238108  0.38920732     1.10700
C103        C  0.43740529  0.37109637  0.38205137     0.97900
C104        C  0.34367760  0.45320988  0.37560819     0.98000
N105        N  0.39858353  0.46648526  0.01696046    -0.07300
N106        N  0.38149793  0.47865175  0.03730297    -0.62700
N107        N  0.41753660  0.39893556  0.49591666    -0.06600
N108        N  0.40999300  0.36440740  0.50333105    -0.59400
N109        N  0.44020957  0.42245438  0.01918619    -0.07900
N110        N  0.44833159  0.40473856  0.04284917    -0.62200
N111        N  0.37532317  0.44367183  0.49363530    -0.06900
N112        N  0.34169176  0.43984190  0.49761901    -0.59400
Mn113      Mn  0.45752631  0.48204109  0.01886530     1.20200
Mn114      Mn  0.39535330  0.41967723  0.45403603     1.10100
Cl115      Cl  0.45770323  0.48214375  0.45407155    -0.87400
C116        C  0.34612783  0.46183383  0.02499269     0.95000
C117        C  0.42950392  0.36850908  0.03274944     0.94800
N118        N  0.99914219  0.54006433  0.01814502    -0.07500
N119        N  0.02805692  0.55742343  0.03885342    -0.59700
N120        N  0.91304291  0.52061571  0.49605020    -0.07200
N121        N  0.88650607  0.52878994  0.50338743    -0.61800
N122        N  0.91356196  0.49795150  0.01948744    -0.06800
N123        N  0.88789774  0.49049483  0.04323562    -0.59600
N124        N  0.99973088  0.56310280  0.49450490    -0.06500
N125        N  0.02926368  0.59687062  0.49870454    -0.62100
C126        C  0.04660877  0.59272303  0.02647073     0.94600
C127        C  0.87106285  0.50973623  0.03296610     0.94400
N128        N  0.91313509  0.49602352  0.39132857    -0.07700
N129        N  0.88481612  0.48508566  0.36996665    -0.60200
N130        N  0.99947508  0.56383596  0.41309771    -0.05800
N131        N  0.02634589  0.59849569  0.40582765    -0.61500
N132        N  0.99894401  0.54043438  0.38980190    -0.07700
N133        N  0.02496212  0.55842772  0.36627283    -0.60500
N134        N  0.91254767  0.51879571  0.41473874    -0.05500
N135        N  0.88357400  0.52373470  0.40980765    -0.61600
Mn136      Mn  0.95619579  0.54292928  0.45459103     1.18400
C137        C  0.86657510  0.50242602  0.38178783     0.96700
C138        C  0.04202365  0.59461691  0.37646079     0.97400
N139        N  0.91306018  0.42171364  0.01794920    -0.07800
N140        N  0.88418182  0.40393765  0.03867424    -0.64100
N141        N  0.00004197  0.44190276  0.49703335    -0.06600
N142        N  0.02731191  0.43482262  0.50434745    -0.64700
N143        N  0.99887167  0.46439437  0.02036404    -0.07300
N144        N  0.02491173  0.47289274  0.04397478    -0.64300
N145        N  0.91324025  0.39866148  0.49461374    -0.06200
N146        N  0.88429310  0.36456394  0.49900287    -0.65000
Mn147      Mn  0.95606835  0.48098593  0.01982621     1.10700
C148        C  0.86649756  0.36842962  0.02659099     0.97900
C149        C  0.04262984  0.45445231  0.03372178     0.98000
N150        N  0.00057183  0.46560115  0.39190507    -0.07300
N151        N  0.02912818  0.47689414  0.37078918    -0.62700
N152        N  0.91463702  0.39768433  0.41328257    -0.06600
N153        N  0.88850997  0.36279244  0.40576116    -0.59400
N154        N  0.91492846  0.42081791  0.38988872    -0.07900
N155        N  0.88949170  0.40236863  0.36600767    -0.62200
N156        N  0.00142699  0.44325899  0.41554369    -0.06900
N157        N  0.03083822  0.43890919  0.41093182    -0.59400
Mn158      Mn  0.95681795  0.48068112  0.38993859     1.20200
Mn159      Mn  0.95738657  0.41906522  0.45514781     1.10100
Cl160      Cl  0.95656986  0.48088535  0.45487547    -0.87400
C161        C  0.04780714  0.46019472  0.38289992     0.95000
C162        C  0.87303611  0.36621046  0.37613119     0.94800
N163        N  0.47185541  0.93678787  0.01534510    -0.07500
N164        N  0.46023168  0.90779424  0.03586077    -0.59700
N165        N  0.54000871  0.02294724  0.49499092    -0.07200
N166        N  0.57492869  0.04894126  0.50263266    -0.61800
N167        N  0.51688638  0.02243038  0.01850031    -0.06500
N168        N  0.53534997  0.04764701  0.04257129    -0.59600
N169        N  0.49447121  0.93638651  0.49169107    -0.06500
N170        N  0.49874631  0.90690741  0.49567667    -0.62100
C171        C  0.47704886  0.88935908  0.02333267     0.94600
C172        C  0.57157747  0.06415168  0.03244471     0.94400
N173        N  0.51580869  0.02529296  0.39071093    -0.07700
N174        N  0.53302837  0.05507813  0.37104152    -0.60200
N175        N  0.49619848  0.93837948  0.41054269    -0.05800
N176        N  0.50351955  0.91130423  0.40303558    -0.61500
N177        N  0.47336620  0.93926254  0.38747375    -0.07700
N178        N  0.46475266  0.91308717  0.36391326    -0.60500
N179        N  0.53890720  0.02521483  0.41397467    -0.05500
N180        N  0.57255612  0.05511942  0.41055521    -0.61600
Mn181      Mn  0.51874030  0.98070977  0.45272954     1.18400
C182        C  0.56827547  0.07342343  0.38366492     0.96700
C183        C  0.48361458  0.89568702  0.37384624     0.97400
N184        N  0.44165885  0.02430051  0.01736179    -0.07800
N185        N  0.45341399  0.05291748  0.03851310    -0.64100
N186        N  0.37359469  0.93832874  0.49510041    -0.06600
N187        N  0.33879104  0.91192998  0.50261738    -0.64700
N188        N  0.39697542  0.93869135  0.01828175    -0.07300
N189        N  0.37875235  0.91303669  0.04203040    -0.64300
N190        N  0.41884913  0.02513461  0.49413045    -0.06200
N191        N  0.41472823  0.05461248  0.49902510    -0.65000
Mn192      Mn  0.45686701  0.98057592  0.01818570     1.10700
C193        C  0.43661894  0.07167028  0.02677740     0.97900
C194        C  0.34251785  0.89642678  0.03202262     0.98000
N195        N  0.39766994  0.93927006  0.38978182    -0.07300
N196        N  0.38044101  0.91070838  0.36868466    -0.62700
N197        N  0.41722311  0.02541915  0.41243542    -0.06600
N198        N  0.40962096  0.05239474  0.40519543    -0.59400
N199        N  0.44004338  0.02482796  0.38910885    -0.07900
N200        N  0.44828620  0.05091721  0.36569526    -0.62200
N201        N  0.37442749  0.93845721  0.41343876    -0.06900
N202        N  0.34063462  0.90900375  0.40886976    -0.59400
Mn203      Mn  0.45674720  0.98215676  0.38842809     1.20200
Mn204      Mn  0.39462529  0.98183038  0.45378710     1.10100
Cl205      Cl  0.45669434  0.98130659  0.45331072    -0.87400
C206        C  0.34501682  0.89205413  0.38082395     0.95000
C207        C  0.42933240  0.06810801  0.37588182     0.94800
C208        C  0.44845044  0.31594445  0.10327244    -0.14800
C209        C  0.43471128  0.28029685  0.08851021     0.07400
C210        C  0.41774532  0.27350900  0.05582315    -0.14800
C211        C  0.41523294  0.30174262  0.03805907    -0.14800
C212        C  0.43010208  0.33772100  0.05225919     0.07400
C213        C  0.44644324  0.34441043  0.08523162    -0.14800
H214        H  0.46183234  0.32219244  0.12824436     0.11400
H215        H  0.40663379  0.24629260  0.04372857     0.11400
H216        H  0.40254318  0.29573101  0.51280536     0.11400
H217        H  0.45804687  0.37183553  0.09700442     0.11400
C218        C  0.42335676  0.12465830  0.03023513    -0.14800
C219        C  0.44122603  0.10583702  0.04321029     0.07400
C220        C  0.46317572  0.11929387  0.07299931    -0.14800
C221        C  0.46595488  0.15002447  0.09040815    -0.14800
C222        C  0.44705089  0.16810209  0.07828346     0.07400
C223        C  0.42644505  0.15583867  0.04760323    -0.14800
H224        H  0.40644813  0.11484898  0.00715989     0.11400
H225        H  0.47756125  0.10554649  0.08340191     0.11400
H226        H  0.48237416  0.15921813  0.11381311     0.11400
H227        H  0.41153948  0.16933879  0.03786896     0.11400
C228        C  0.44876392  0.23943220  0.21555739    -0.17800
C229        C  0.44995527  0.21647947  0.19204983    -0.33000
H230        H  0.44839483  0.26436923  0.20707434     0.11200
H231        H  0.45095250  0.19187026  0.20053508     0.11800
C232        C  0.46446726  0.32155152  0.31718889    -0.14800
C233        C  0.44565736  0.28460593  0.32945642     0.07400
C234        C  0.42619612  0.27650417  0.36078840    -0.14800
C235        C  0.42400458  0.30481278  0.37866092    -0.14800
C236        C  0.44164806  0.34143647  0.36550371     0.07400
C237        C  0.46262924  0.34971106  0.33510557    -0.14800
H238        H  0.48011636  0.32861429  0.29333268     0.11400
H239        H  0.41149843  0.24813488  0.37069790     0.11400
H240        H  0.40788907  0.29792624  0.40222208     0.11400
H241        H  0.47685031  0.37781037  0.32455315     0.11400
C242        C  0.44902908  0.13985610  0.30549843    -0.14800
C243        C  0.43315965  0.16028389  0.31917444     0.07400
C244        C  0.41468908  0.14919316  0.35117603    -0.14800
C245        C  0.41272429  0.11890330  0.36935170    -0.14800
C246        C  0.42963414  0.09923770  0.35621650     0.07400
C247        C  0.44753230  0.10987012  0.32393000    -0.14800
H248        H  0.46371009  0.14785423  0.28114366     0.11400
H249        H  0.40201298  0.16426895  0.36240639     0.11400
H250        H  0.39861932  0.11137109  0.39399240     0.11400
H251        H  0.46077086  0.09520607  0.31298972     0.11400
C252        C  0.62607703  0.49644689  0.30399901    -0.14800
C253        C  0.66126608  0.50920485  0.31938056     0.07400
C254        C  0.66700865  0.52369898  0.35307400    -0.14800
C255        C  0.63819320  0.52486004  0.37113075    -0.14800
C256        C  0.60273233  0.51109503  0.35615187     0.07400
C257        C  0.59702140  0.49709281  0.32230923    -0.14800
H258        H  0.62066914  0.48498015  0.27822798     0.11400
H259        H  0.69384404  0.53397214  0.36569493     0.11400
H260        H  0.64346674  0.53584987  0.39708110     0.11400
H261        H  0.56997476  0.48644211  0.31000144     0.11400
C262        C  0.78408172  0.51525407  0.36066209    -0.14800
C263        C  0.77486613  0.49929984  0.32767445     0.07400
C264        C  0.79452902  0.48270205  0.31380815    -0.14800
C265        C  0.82358407  0.48293747  0.33203457    -0.14800
C266        C  0.83389893  0.50013667  0.36437396     0.07400
C267        C  0.81369939  0.51591666  0.37884686    -0.14800
H268        H  0.76922303  0.52816541  0.37188294     0.11400
H269        H  0.78769135  0.46975018  0.28862220     0.11400
H270        H  0.83856646  0.47039291  0.32034113     0.11400
H271        H  0.82110273  0.52914089  0.40389525     0.11400
C272        C  0.66239104  0.51161098  0.04629876    -0.14800
C273        C  0.65342666  0.49021706  0.07651280     0.07400
C274        C  0.61601591  0.46948822  0.08728938    -0.14800
C275        C  0.58813616  0.47167876  0.06925344    -0.14800
C276        C  0.59728852  0.49502883  0.04038521     0.07400
C277        C  0.63440564  0.51420097  0.02838435    -0.14800
H278        H  0.69119805  0.52778977  0.03757822     0.11400
H279        H  0.60846258  0.45235960  0.11023429     0.11400
H280        H  0.55958690  0.45611080  0.07873983     0.11400
H281        H  0.64178302  0.53155674  0.50577966     0.11400
C282        C  0.72568988  0.49748295  0.21456354    -0.17800
C283        C  0.69964638  0.49246080  0.19146174    -0.33000
H284        H  0.75208086  0.50041507  0.20570844     0.11200
H285        H  0.67295088  0.48885811  0.20020229     0.11800
C286        C  0.80203225  0.49527192  0.10441869    -0.14800
C287        C  0.77883871  0.50668438  0.08851531     0.07400
C288        C  0.78761958  0.52113298  0.05484670    -0.14800
C289        C  0.81813519  0.52311412  0.03713168    -0.14800
C290        C  0.84033251  0.51022546  0.05245492     0.07400
C291        C  0.83230090  0.49674064  0.08644779    -0.14800
H292        H  0.79596970  0.48392945  0.13020895     0.11400
H293        H  0.77047836  0.53044536  0.04188301     0.11400
H294        H  0.82369361  0.53374544  0.01108300     0.11400
H295        H  0.84916900  0.48686845  0.09903301     0.11400
C296        C  0.66813928  0.14479679  0.05610527    -0.14800
C297        C  0.66207784  0.15454792  0.08928477     0.07400
C298        C  0.62646640  0.13297292  0.10421888    -0.14800
C299        C  0.59726202  0.10339728  0.08583088    -0.14800
C300        C  0.60315583  0.09435050  0.05232861     0.07400
C301        C  0.63913888  0.11493613  0.03796431    -0.14800
H302        H  0.69531911  0.16068238  0.04385973     0.11400
H303        H  0.62079225  0.13981475  0.12956591     0.11400
H304        H  0.56985920  0.08786751  0.09772882     0.11400
H305        H  0.64465059  0.10859671  0.01234285     0.11400
C306        C  0.78707759  0.27163109  0.04885070    -0.14800
C307        C  0.77357900  0.27939752  0.07905650     0.07400
C308        C  0.78895969  0.31658161  0.09025999    -0.14800
C309        C  0.81832903  0.34552150  0.07233508    -0.14800
C310        C  0.83315829  0.33777955  0.04305667     0.07400
C311        C  0.81695457  0.30073010  0.03100811    -0.14800
H312        H  0.77557536  0.24304270  0.03987811     0.11400
H313        H  0.77863147  0.32324560  0.11327138     0.11400
H314        H  0.83005123  0.37388391  0.08199369     0.11400
H315        H  0.82763690  0.29422870  0.50822698     0.11400
C316        C  0.66441316  0.15395062  0.36213305    -0.14800
C317        C  0.65663555  0.16627430  0.33126113     0.07400
C318        C  0.61947489  0.15053547  0.31994434    -0.14800
C319        C  0.59059695  0.12156380  0.33821260    -0.14800
C320        C  0.59846225  0.10743635  0.36783978     0.07400
C321        C  0.63538989  0.12441029  0.38028992    -0.14800
H322        H  0.69299444  0.16590278  0.37128587     0.11400
H323        H  0.61281962  0.16009712  0.29648823     0.11400
H324        H  0.56226778  0.10928971  0.32831718     0.11400
H325        H  0.64196660  0.11406170  0.40327157     0.11400
C326        C  0.70306760  0.21004737  0.21657504    -0.17800
C327        C  0.72654118  0.23357720  0.19299386    -0.33000
H328        H  0.67783444  0.18483954  0.20820984     0.11200
H329        H  0.75137379  0.25913864  0.20141604     0.11800
C330        C  0.80416158  0.31125964  0.30450880    -0.14800
C331        C  0.78201218  0.27602274  0.31982220     0.07400
C332        C  0.79135180  0.27019555  0.35321808    -0.14800
C333        C  0.82143541  0.29908131  0.37118399    -0.14800
C334        C  0.84263833  0.33471206  0.35642477     0.07400
C335        C  0.83397338  0.34038172  0.32273230    -0.14800
H336        H  0.79760838  0.31672543  0.27898922     0.11400
H337        H  0.77498693  0.24329740  0.36575973     0.11400
H338        H  0.82745632  0.29378731  0.39698074     0.11400
H339        H  0.85000063  0.36753323  0.31056141     0.11400
C340        C  0.24753415  0.43834621  0.35217186    -0.14800
C341        C  0.25383532  0.45462574  0.31922696     0.07400
C342        C  0.28957122  0.46898661  0.30447368    -0.14800
C343        C  0.31861032  0.46829739  0.32276359    -0.14800
C344        C  0.31240963  0.45267000  0.35597076     0.07400
C345        C  0.27636225  0.43715500  0.37019843    -0.14800
H346        H  0.22026620  0.42681344  0.36427440     0.11400
H347        H  0.29543414  0.48188035  0.27931049     0.11400
H348        H  0.34607510  0.48032238  0.31098108     0.11400
H349        H  0.27062682  0.42481700  0.39560020     0.11400
C350        C  0.12143859  0.48276605  0.31577966    -0.14800
C351        C  0.14096337  0.46582184  0.32908474     0.07400
C352        C  0.13126430  0.44884606  0.36161851    -0.14800
C353        C  0.10121521  0.44739941  0.37979738    -0.14800
C354        C  0.08104119  0.46336045  0.36575356     0.07400
C355        C  0.09193853  0.48169521  0.33396900    -0.14800
H356        H  0.12863168  0.49651558  0.29098162     0.11400
H357        H  0.14600945  0.43565182  0.37241258     0.11400
H358        H  0.09339165  0.43333444  0.40442540     0.11400
H359        H  0.07705992  0.49448564  0.32261930     0.11400
C360        C  0.21397564  0.47011262  0.19189555    -0.17800
C361        C  0.19001128  0.46937051  0.21539462    -0.33000
H362        H  0.23920244  0.47024739  0.20033432     0.11200
H363        H  0.16508098  0.46978625  0.20688854     0.11800
C364        C  0.29681741  0.49077467  0.08834014    -0.14800
C365        C  0.25950072  0.47005661  0.07726819     0.07400
C366        C  0.25089449  0.44883548  0.04691998    -0.14800
C367        C  0.27923929  0.44673771  0.02897728    -0.14800
C368        C  0.31634329  0.46624330  0.04109022     0.07400
C369        C  0.32500219  0.48907963  0.07031509    -0.14800
H370        H  0.30412524  0.50775738  0.11141143     0.11400
H371        H  0.22216562  0.43264026  0.03800461     0.11400
H372        H  0.27202277  0.42913984  0.00633964     0.11400
H373        H  0.35346267  0.50481130  0.07998075     0.11400
C374        C  0.11413837  0.47245594  0.10400430    -0.14800
C375        C  0.13590816  0.45885610  0.08874043     0.07400
C376        C  0.12595021  0.44283259  0.05567683    -0.14800
C377        C  0.09537296  0.44083459  0.03811797    -0.14800
C378        C  0.07419933  0.45526163  0.05292370     0.07400
C379        C  0.08376564  0.47094818  0.08614862    -0.14800
H380        H  0.12122424  0.48520055  0.12926176     0.11400
H381        H  0.14201524  0.43193276  0.04316586     0.11400
H382        H  0.08873272  0.42858017  0.01265170     0.11400
H383        H  0.06786783  0.48224041  0.09829598     0.11400
C384        C  0.12878927  0.68821796  0.04742037    -0.14800
C385        C  0.14118073  0.68031569  0.07818414     0.07400
C386        C  0.12437776  0.64328304  0.09002541    -0.14800
C387        C  0.09447303  0.61472244  0.07230412    -0.14800
C388        C  0.08058815  0.62274709  0.04259195     0.07400
C389        C  0.09838992  0.65951496  0.02976553    -0.14800
H390        H  0.14145767  0.71670129  0.03792305     0.11400
H391        H  0.13387104  0.63650467  0.11346033     0.11400
H392        H  0.08153599  0.58650956  0.08251881     0.11400
H393        H  0.08822083  0.66621054  0.00673176     0.11400
C394        C  0.24756156  0.81267822  0.05407577    -0.14800
C395        C  0.25263212  0.80500104  0.08835675     0.07400
C396        C  0.28708829  0.82890659  0.10442331    -0.14800
C397        C  0.31615410  0.85879625  0.08617573    -0.14800
C398        C  0.31115954  0.86582468  0.05169781     0.07400
C399        C  0.27631925  0.84280612  0.03609816    -0.14800
H400        H  0.22133435  0.79504457  0.04083981     0.11400
H401        H  0.29200724  0.82380573  0.13066456     0.11400
H402        H  0.34269523  0.87627848  0.09899205     0.11400
H403        H  0.27158667  0.84748353  0.00966105     0.11400
C404        C  0.12534775  0.68975750  0.35376489    -0.14800
C405        C  0.13413252  0.68379927  0.32013623     0.07400
C406        C  0.11141263  0.64861112  0.30483061    -0.14800
C407        C  0.08143189  0.61978622  0.32314306    -0.14800
C408        C  0.07309055  0.62569594  0.35692658     0.07400
C409        C  0.09507170  0.66118360  0.37181280    -0.14800
H410        H  0.14214517  0.71658773  0.36635501     0.11400
H411        H  0.11749601  0.64300207  0.27914545     0.11400
H412        H  0.06486470  0.59272596  0.31088220     0.11400
H413        H  0.08938105  0.66664106  0.39770521     0.11400
C414        C  0.18692174  0.72674366  0.19222210    -0.17800
C415        C  0.21116150  0.74949803  0.21574012    -0.33000
H416        H  0.16149305  0.70178151  0.20063776     0.11200
H417        H  0.23689336  0.77409431  0.20726715     0.11800
C418        C  0.29511054  0.81527060  0.31615377    -0.14800
C419        C  0.25846573  0.79630746  0.32924475     0.07400
C420        C  0.25067402  0.80739429  0.36087076    -0.14800
C421        C  0.27896744  0.83837894  0.37829436    -0.14800
C422        C  0.31526903  0.85809373  0.36438706     0.07400
C423        C  0.32325678  0.84576921  0.33360393    -0.14800
H424        H  0.30190522  0.80696928  0.29199529     0.11400
H425        H  0.22250850  0.79313582  0.37135478     0.11400
H426        H  0.27233033  0.84731912  0.40215979     0.11400
H427        H  0.35111059  0.86025461  0.32244916     0.11400
C428        C  0.49366212  0.68990996  0.35973542    -0.14800
C429        C  0.47461001  0.68185936  0.32818724     0.07400
C430        C  0.45606321  0.64494341  0.31575843    -0.14800
C431        C  0.45734811  0.61668568  0.33389355    -0.14800
C432        C  0.47753031  0.62474035  0.36472840     0.07400
C433        C  0.49533667  0.66145191  0.37785391    -0.14800
H434        H  0.50819408  0.71827027  0.36974179     0.11400
H435        H  0.44075822  0.63788815  0.29171925     0.11400
H436        H  0.44311194  0.58859266  0.32326246     0.11400
H437        H  0.51092628  0.66820990  0.40170579     0.11400
C438        C  0.46189261  0.82112427  0.30548274    -0.14800
C439        C  0.48157512  0.80388835  0.31783952     0.07400
C440        C  0.50254118  0.81762206  0.34830331    -0.14800
C441        C  0.50356526  0.84762055  0.36622395    -0.14800
C442        C  0.48324430  0.86436616  0.35439185     0.07400
C443        C  0.46250323  0.85088915  0.32370814    -0.14800
H444        H  0.44513859  0.81085569  0.28234882     0.11400
H445        H  0.51808228  0.80495464  0.35842799     0.11400
H446        H  0.51993979  0.85740628  0.38960071     0.11400
H447        H  0.44649465  0.86317706  0.31389280     0.11400
C448        C  0.50175817  0.69183324  0.05560118    -0.14800
C449        C  0.48446526  0.68535889  0.08808406     0.07400
C450        C  0.46927756  0.64955748  0.10271341    -0.14800
C451        C  0.47029892  0.62057485  0.08469934    -0.14800
C452        C  0.48702038  0.62698189  0.05194834     0.07400
C453        C  0.50324910  0.66306393  0.03785740    -0.14800
H454        H  0.51389723  0.71919957  0.04367297     0.11400
H455        H  0.45554672  0.64364544  0.12751870     0.11400
H456        H  0.45765953  0.59301904  0.09629689     0.11400
H457        H  0.51640483  0.66888379  0.01278559     0.11400
C458        C  0.49171366  0.80837459  0.04539012    -0.14800
C459        C  0.47290861  0.79739951  0.07706372     0.07400
C460        C  0.45340124  0.81482611  0.08922460    -0.14800
C461        C  0.45376505  0.84373381  0.07081690    -0.14800
C462        C  0.47402612  0.85613917  0.04005020     0.07400
C463        C  0.49247886  0.83788652  0.02701120    -0.14800
H464        H  0.50688521  0.79515333  0.03556384     0.11400
H465        H  0.43819572  0.80644107  0.11331692     0.11400
H466        H  0.43899373  0.85707887  0.08131094     0.11400
H467        H  0.50811601  0.84695493  0.00318589     0.11400
C468        C  0.47051874  0.75019358  0.19119885    -0.17800
C469        C  0.47019601  0.72634137  0.21447691    -0.33000
H470        H  0.47034893  0.77521895  0.19981088     0.11200
H471        H  0.46998295  0.70113038  0.20583739     0.11800
C472        C  0.48024452  0.71545545  0.60483649     0.78800
N473        N  0.47946527  0.74189918  0.58465366    -0.79500
C474        C  0.47459415  0.76923599  0.59861381     0.81300
N475        N  0.47126002  0.77071515  0.63303435    -0.79400
C476        C  0.47236072  0.74508887  0.65376426     0.81300
N477        N  0.47653404  0.71693611  0.63966733    -0.81200
C478        C  0.47518222  0.71157928  0.80694549     0.78800
N479        N  0.47176329  0.70684547  0.77252115    -0.79500
C480        C  0.47179881  0.73315028  0.75192696     0.81300
N481        N  0.47479977  0.76494207  0.76616912    -0.79400
C482        C  0.47851623  0.77010205  0.80100499     0.81300
N483        N  0.47900878  0.74337634  0.82108250    -0.81200
C484        C  0.22841932  0.76731067  0.80820289     0.78800
N485        N  0.19641341  0.74000054  0.82260779    -0.79500
C486        C  0.16838734  0.71370366  0.80277861     0.81300
N487        N  0.17256612  0.71547346  0.76774512    -0.79400
C488        C  0.20477938  0.74361546  0.75324904     0.81300
N489        N  0.23224637  0.76890991  0.77370907    -0.81200
C490        C  0.22258333  0.77059447  0.60561387     0.78800
N491        N  0.19656864  0.74265737  0.58554586    -0.79500
C492        C  0.16933499  0.71044004  0.59961100     0.81300
N493        N  0.16741861  0.70622358  0.63405951    -0.79400
C494        C  0.19250121  0.73355917  0.65478274     0.81300
N495        N  0.22063543  0.76601141  0.64059836    -0.81200
C496        C  0.17033931  0.46318688  0.60551818     0.78800
N497        N  0.17519956  0.46584682  0.64043184    -0.79500
C498        C  0.20748464  0.46967494  0.65440967     0.81300
N499        N  0.23448398  0.47144081  0.63347332    -0.79400
C500        C  0.22992099  0.46898476  0.59900865     0.81300
N501        N  0.19778250  0.46445575  0.58519243    -0.81200
C502        C  0.16977801  0.46442290  0.80783580     0.78800
N503        N  0.19699780  0.45948146  0.82204383    -0.79500
C504        C  0.22378132  0.45877347  0.80211273     0.81300
N505        N  0.22272542  0.46263574  0.76721632    -0.79400
C506        C  0.19471957  0.46690836  0.75287500     0.81300
N507        N  0.16883194  0.46791322  0.77340723    -0.81200
C508        C  0.74768522  0.24601857  0.80284061     0.78800
N509        N  0.71983865  0.22038150  0.82316127    -0.79500
C510        C  0.68726661  0.19339981  0.80936148     0.81300
N511        N  0.68265555  0.19130656  0.77491607    -0.79400
C512        C  0.70999695  0.21603661  0.75396876     0.81300
N513        N  0.74272626  0.24396764  0.76792366    -0.81200
C514        C  0.74514105  0.24924130  0.60032132     0.78800
N515        N  0.74637712  0.25392001  0.63473315    -0.79500
C516        C  0.72108938  0.22673112  0.65542982     0.81300
N517        N  0.69332224  0.19407294  0.64123801    -0.79400
C518        C  0.69197641  0.18902506  0.60633086     0.81300
N519        N  0.71827473  0.21671464  0.58625506    -0.81200
C520        C  0.68283651  0.49143873  0.59832970     0.78800
N521        N  0.67814433  0.48902981  0.63281456    -0.79500
C522        C  0.70590550  0.49272074  0.65383116     0.81300
N523        N  0.73891921  0.49835680  0.63993278    -0.79400
C524        C  0.74378539  0.50084589  0.60506675     0.81300
N525        N  0.71567578  0.49771455  0.58466868    -0.81200
C526        C  0.69157176  0.50588872  0.80170294     0.78800
N527        N  0.71857703  0.50526036  0.82127638    -0.79500
C528        C  0.74618644  0.50124399  0.80661689     0.81300
N529        N  0.74728172  0.49858934  0.77209826    -0.79400
C530        C  0.72102884  0.49933625  0.75194985     0.81300
N531        N  0.69265664  0.50269101  0.76672568    -0.81200
C532        C  0.43833722  0.19491982  0.80207715     0.78800
N533        N  0.44239160  0.20002920  0.76719806    -0.79500
C534        C  0.44710422  0.23254837  0.75300538     0.81300
N535        N  0.44841626  0.25948460  0.77367995    -0.79400
C536        C  0.44476319  0.25479881  0.80807959     0.81300
N537        N  0.43928230  0.22240290  0.82212536    -0.81200
C538        C  0.44664978  0.19743933  0.59943543     0.78800
N539        N  0.44109672  0.22431889  0.58535609    -0.79500
C540        C  0.44005287  0.25084972  0.60540541     0.81300
N541        N  0.44392198  0.24967958  0.64029123    -0.79400
C542        C  0.44879732  0.22199645  0.65449898     0.81300
N543        N  0.45033651  0.19649061  0.63383672    -0.81200
N544        N  0.47377028  0.54151131  0.89102390    -0.07500
N545        N  0.46285380  0.55900825  0.86991420    -0.59700
N546        N  0.54085947  0.52226098  0.91243073    -0.07200
N547        N  0.57550341  0.53010547  0.90515017    -0.61800
N548        N  0.51746088  0.49966364  0.88898080    -0.06800
N549        N  0.53547049  0.49186227  0.86529686    -0.59600
N550        N  0.49669303  0.56474665  0.91444519    -0.06500
N551        N  0.50180724  0.59876961  0.90969518    -0.62100
C552        C  0.48038244  0.59457259  0.88179820     0.94600
C553        C  0.57163849  0.51085884  0.87561494     0.94400
N554        N  0.51628497  0.49730936  0.51711332    -0.07700
N555        N  0.53277705  0.48427871  0.53710080    -0.60200
N556        N  0.49815112  0.56504762  0.99577096    -0.05800
N557        N  0.50632319  0.59973020  0.00319863    -0.61500
N558        N  0.47518340  0.54170907  0.51902587    -0.07700
N559        N  0.46740935  0.55977184  0.54265424    -0.60500
N560        N  0.53977158  0.52000983  0.99366335    -0.05500
N561        N  0.57307356  0.52302389  0.99744094    -0.61600
Mn562      Mn  0.52026503  0.54441247  0.95411997     1.18400
C563        C  0.56799387  0.50024437  0.52458475     0.96700
C564        C  0.48690056  0.59594581  0.53257432     0.97400
N565        N  0.44220569  0.42346975  0.89068448    -0.07800
N566        N  0.45413291  0.40653986  0.86987610    -0.64100
N567        N  0.37464266  0.44186416  0.91228698    -0.06600
N568        N  0.33991195  0.43369745  0.90487937    -0.64700
N569        N  0.39806279  0.46493555  0.88910595    -0.07300
N570        N  0.37997316  0.47269109  0.86551467    -0.64300
N571        N  0.41961547  0.40006722  0.91415415    -0.06200
N572        N  0.41570582  0.36648455  0.90970747    -0.65000
Mn573      Mn  0.45781118  0.48240434  0.88913672     1.10700
C574        C  0.43752249  0.37114298  0.88197426     0.97900
C575        C  0.34371826  0.45320517  0.87556490     0.98000
N576        N  0.39861392  0.46659884  0.51701360    -0.07300
N577        N  0.38156305  0.47883278  0.53732246    -0.62700
N578        N  0.41759496  0.39889763  0.99583205    -0.06600
N579        N  0.41004059  0.36436765  0.00325877    -0.59400
N580        N  0.44015435  0.42248874  0.51927035    -0.07900
N581        N  0.44828864  0.40477345  0.54292256    -0.62200
N582        N  0.37530623  0.44355748  0.99357608    -0.06900
N583        N  0.34164766  0.43965614  0.99759070    -0.59400
Mn584      Mn  0.45753179  0.48208152  0.51893575     1.20200
Mn585      Mn  0.39539783  0.41964028  0.95395621     1.10100
Cl586      Cl  0.45772196  0.48213600  0.95400300    -0.87400
C587        C  0.34620175  0.46205851  0.52499597     0.95000
C588        C  0.42946428  0.36854796  0.53281531     0.94800
N589        N  0.99913581  0.54003612  0.51814862    -0.07500
N590        N  0.02805136  0.55739508  0.53885431    -0.59700
N591        N  0.91303552  0.52063387  0.99605507    -0.07200
N592        N  0.88650110  0.52880974  0.00340016    -0.61800
N593        N  0.91356687  0.49793615  0.51948629    -0.06800
N594        N  0.88790086  0.49048068  0.54323089    -0.59600
N595        N  0.99973591  0.56313247  0.99450382    -0.06500
N596        N  0.02926863  0.59690179  0.99870871    -0.62100
C597        C  0.04660324  0.59269112  0.52646509     0.94600
C598        C  0.87106744  0.50971981  0.53295419     0.94400
N599        N  0.91311685  0.49606442  0.89131123    -0.07700
N600        N  0.88483487  0.48518699  0.86991297    -0.60200
N601        N  0.99946192  0.56385512  0.91309715    -0.05800
N602        N  0.02634857  0.59851145  0.90584314    -0.61500
N603        N  0.99892265  0.54045730  0.88979238    -0.07700
N604        N  0.02494990  0.55845035  0.86627156    -0.60500
N605        N  0.91253366  0.51883443  0.91472717    -0.05500
N606        N  0.88359817  0.52382928  0.90976333    -0.61600
Mn607      Mn  0.95618691  0.54295366  0.95459006     1.18400
C608        C  0.86661692  0.50255792  0.88171857     0.96700
C609        C  0.04202529  0.59463429  0.87647596     0.97400
N610        N  0.91304611  0.42169859  0.51795450    -0.07800
N611        N  0.88413870  0.40394669  0.53864990    -0.64100
N612        N  0.00006473  0.44194553  0.99699425    -0.06600
N613        N  0.02735111  0.43488342  0.00429170    -0.64700
N614        N  0.99884554  0.46435087  0.52040214    -0.07300
N615        N  0.02486110  0.47282425  0.54403317    -0.64300
N616        N  0.91326279  0.39868419  0.99460454    -0.06200
N617        N  0.88435439  0.36456988  0.99902110    -0.65000
Mn618      Mn  0.95606060  0.48096175  0.51983803     1.10700
C619        C  0.86642571  0.36844519  0.52655363     0.97900
C620        C  0.04257099  0.45437318  0.53378944     0.98000
N621        N  0.00055329  0.46562183  0.89186542    -0.07300
N622        N  0.02909285  0.47688678  0.87073035    -0.62700
N623        N  0.91463885  0.39771258  0.91326690    -0.06600
N624        N  0.88855347  0.36281178  0.90572451    -0.59400
N625        N  0.91490493  0.42084316  0.88988284    -0.07900
N626        N  0.88948342  0.40238259  0.86599332    -0.62200
N627        N  0.00141524  0.44328823  0.91550928    -0.06900
N628        N  0.03081165  0.43891826  0.91088577    -0.59400
Mn629      Mn  0.95679488  0.48070777  0.88992141     1.20200
Mn630      Mn  0.95739428  0.41909932  0.95512378     1.10100
Cl631      Cl  0.95656261  0.48091168  0.95486150    -0.87400
C632        C  0.04776700  0.46017991  0.88284018     0.95000
C633        C  0.87306911  0.36622010  0.87609802     0.94800
N634        N  0.47185531  0.93680946  0.51536102    -0.07500
N635        N  0.46024441  0.90782117  0.53587781    -0.59700
N636        N  0.54007759  0.02292176  0.99498813    -0.07200
N637        N  0.57500203  0.04891381  0.00262233    -0.61800
N638        N  0.51681313  0.02243544  0.51851049    -0.06500
N639        N  0.53526967  0.04763910  0.54259289    -0.59600
N640        N  0.49446552  0.93635314  0.99167585    -0.06500
N641        N  0.49872421  0.90686428  0.99565910    -0.62100
C642        C  0.47707332  0.88939930  0.52335187     0.94600
C643        C  0.57149687  0.06415717  0.53246539     0.94400
N644        N  0.51593230  0.02531351  0.89071134    -0.07700
N645        N  0.53321492  0.05507131  0.87101624    -0.60200
N646        N  0.49623132  0.93838625  0.91053700    -0.05800
N647        N  0.50357430  0.91133277  0.90301357    -0.61500
N648        N  0.47343328  0.93930107  0.88744886    -0.07700
N649        N  0.46487040  0.91317221  0.86385218    -0.60500
N650        N  0.53900310  0.02519150  0.91398169    -0.05500
N651        N  0.57269179  0.05503214  0.91054226    -0.61600
Mn652      Mn  0.51878109  0.98068768  0.95272869     1.18400
C653        C  0.56846880  0.07334978  0.88363381     0.96700
C654        C  0.48372451  0.89576700  0.87379102     0.97400
N655        N  0.44154418  0.02422815  0.51741012    -0.07800
N656        N  0.45327969  0.05283473  0.53856985    -0.64100
N657        N  0.37364977  0.93841139  0.99506364    -0.06600
N658        N  0.33883812  0.91202972  0.00258402    -0.64700
N659        N  0.39692942  0.93862020  0.51831455    -0.07300
N660        N  0.37871861  0.91295598  0.54206007    -0.64300
N661        N  0.41897084  0.02521667  0.99407919    -0.06200
N662        N  0.41487300  0.05470899  0.99896497    -0.65000
Mn663      Mn  0.45680922  0.98054699  0.51821074     1.10700
C664        C  0.43646679  0.07157296  0.52684197     0.97900
C665        C  0.34248311  0.89632893  0.53205053     0.98000
N666        N  0.39774606  0.93934129  0.88973256    -0.07300
N667        N  0.38050908  0.91078739  0.86862650    -0.62700
N668        N  0.41734681  0.02549688  0.91238807    -0.06600
N669        N  0.40976395  0.05248383  0.90513949    -0.59400
N670        N  0.44018234  0.02490560  0.88907913    -0.07900
N671        N  0.44845854  0.05100742  0.86567166    -0.62200
N672        N  0.37450324  0.93852898  0.91339000    -0.06900
N673        N  0.34070504  0.90908235  0.90881373    -0.59400
Mn674      Mn  0.45684683  0.98221112  0.88840264     1.20200
Mn675      Mn  0.39471712  0.98190725  0.95374111     1.10100
Cl676      Cl  0.45676529  0.98133985  0.95328568    -0.87400
C677        C  0.34508116  0.89213725  0.88076035     0.95000
C678        C  0.42950760  0.06820600  0.87584209     0.94800
C679        C  0.44843080  0.31597023  0.60330054    -0.14800
C680        C  0.43478951  0.28036032  0.58848505     0.07400
C681        C  0.41788777  0.27360312  0.55577040    -0.14800
C682        C  0.41533565  0.30182814  0.53803575    -0.14800
C683        C  0.43010006  0.33776727  0.55229437     0.07400
C684        C  0.44638435  0.34442932  0.58528931    -0.14800
H685        H  0.46175899  0.32219468  0.62829663     0.11400
H686        H  0.40685165  0.24641718  0.54363309     0.11400
H687        H  0.40238848  0.29561910  0.01285088     0.11400
H688        H  0.45790814  0.37182612  0.59710413     0.11400
C689        C  0.42330270  0.12463379  0.53024571    -0.14800
C690        C  0.44109391  0.10575290  0.54326259     0.07400
C691        C  0.46301799  0.11918347  0.57306750    -0.14800
C692        C  0.46585874  0.14995484  0.59044438    -0.14800
C693        C  0.44703689  0.16809940  0.57827801     0.07400
C694        C  0.42644942  0.15585505  0.54758595    -0.14800
H695        H  0.40641815  0.11484648  0.50715511     0.11400
H696        H  0.47734349  0.10539041  0.58350392     0.11400
H697        H  0.48226249  0.15912790  0.61385907     0.11400
H698        H  0.41160625  0.16940562  0.53781865     0.11400
C699        C  0.44878815  0.23947464  0.71551538    -0.17800
C700        C  0.45014199  0.21661012  0.69201044    -0.33000
H701        H  0.44825713  0.26432937  0.70703537     0.11200
H702        H  0.45129535  0.19208404  0.70049597     0.11800
C703        C  0.46477279  0.32163516  0.81723921    -0.14800
C704        C  0.44580979  0.28466025  0.82942708     0.07400
C705        C  0.42619213  0.27652157  0.86067117    -0.14800
C706        C  0.42399726  0.30483129  0.87853140    -0.14800
C707        C  0.44179112  0.34149064  0.86544979     0.07400
C708        C  0.46293058  0.34979865  0.83514714    -0.14800
H709        H  0.48053944  0.32871392  0.79344907     0.11400
H710        H  0.41137046  0.24812510  0.87050970     0.11400
H711        H  0.40775274  0.29791690  0.90201613     0.11400
H712        H  0.47727067  0.37792671  0.82466058     0.11400
C713        C  0.44943309  0.14009619  0.80554020    -0.14800
C714        C  0.43335244  0.16037286  0.81911080     0.07400
C715        C  0.41469576  0.14915538  0.85101746    -0.14800
C716        C  0.41273693  0.11887416  0.86920272    -0.14800
C717        C  0.42983969  0.09934820  0.85617340     0.07400
C718        C  0.44794070  0.11011919  0.82398317    -0.14800
H719        H  0.46427029  0.14820813  0.78126565     0.11400
H720        H  0.40186371  0.16412350  0.86216237     0.11400
H721        H  0.39847260  0.11123260  0.89376581     0.11400
H722        H  0.46133945  0.09557140  0.81312849     0.11400
C723        C  0.62608873  0.49640524  0.80397957    -0.14800
C724        C  0.66137246  0.50944920  0.81925951     0.07400
C725        C  0.66719135  0.52416681  0.85286772    -0.14800
C726        C  0.63835666  0.52527243  0.87094609    -0.14800
C727        C  0.60280546  0.51122782  0.85607413     0.07400
C728        C  0.59701919  0.49699750  0.82231187    -0.14800
H729        H  0.62062309  0.48475293  0.77827841     0.11400
H730        H  0.69410357  0.53465876  0.86540171     0.11400
H731        H  0.64369323  0.53644822  0.89682937     0.11400
H732        H  0.56990236  0.48612237  0.81008476     0.11400
C733        C  0.78418406  0.51548400  0.86054976    -0.14800
C734        C  0.77502629  0.49962421  0.82752292     0.07400
C735        C  0.79472207  0.48307119  0.81363062    -0.14800
C736        C  0.82374156  0.48324914  0.83187600    -0.14800
C737        C  0.83399084  0.50034632  0.86426245     0.07400
C738        C  0.81376679  0.51609157  0.87875259    -0.14800
H739        H  0.76929985  0.52835621  0.87179544     0.11400
H740        H  0.78793144  0.47018935  0.78841450     0.11400
H741        H  0.83874497  0.47073558  0.82016569     0.11400
H742        H  0.82111726  0.52923724  0.90383592     0.11400
C743        C  0.66217197  0.51100502  0.54607678    -0.14800
C744        C  0.65320477  0.48964626  0.57631427     0.07400
C745        C  0.61579262  0.46893170  0.58708824    -0.14800
C746        C  0.58792568  0.47115765  0.56905604    -0.14800
C747        C  0.59710091  0.49453873  0.54020482     0.07400
C748        C  0.63420570  0.51363628  0.52817274    -0.14800
H749        H  0.69097835  0.52716446  0.53734983     0.11400
H750        H  0.60823829  0.45182388  0.61004669     0.11400
H751        H  0.55937938  0.45563123  0.57855576     0.11400
H752        H  0.64196671  0.53211190  0.00598572     0.11400
C753        C  0.72576507  0.49775708  0.71442342    -0.17800
C754        C  0.69963984  0.49256089  0.69134073    -0.33000
H755        H  0.75217219  0.50074090  0.70555263     0.11200
H756        H  0.67292480  0.48889763  0.70009346     0.11800
C757        C  0.80201424  0.49523094  0.60438151    -0.14800
C758        C  0.77875660  0.50653399  0.58843365     0.07400
C759        C  0.78750876  0.52093876  0.55475065    -0.14800
C760        C  0.81806240  0.52297872  0.53706077    -0.14800
C761        C  0.84032036  0.51018704  0.55242511     0.07400
C762        C  0.83231893  0.49675289  0.58643469    -0.14800
H763        H  0.79597140  0.48392523  0.63018557     0.11400
H764        H  0.77031454  0.53016765  0.54175759     0.11400
H765        H  0.82359785  0.53356769  0.51099765     0.11400
H766        H  0.84923577  0.48695670  0.59904919     0.11400
C767        C  0.66803850  0.14482730  0.55609963    -0.14800
C768        C  0.66198019  0.15457999  0.58927774     0.07400
C769        C  0.62638585  0.13297768  0.60423662    -0.14800
C770        C  0.59718508  0.10338382  0.58586258    -0.14800
C771        C  0.60307097  0.09435021  0.55235231     0.07400
C772        C  0.63904389  0.11495107  0.53797334    -0.14800
H773        H  0.69520776  0.16073114  0.54383946     0.11400
H774        H  0.62071813  0.13981849  0.62958685     0.11400
H775        H  0.56979031  0.08783675  0.59777271     0.11400
H776        H  0.64454913  0.10861737  0.51234718     0.11400
C777        C  0.78679502  0.27172124  0.54869823    -0.14800
C778        C  0.77336033  0.27950280  0.57893875     0.07400
C779        C  0.78883713  0.31668260  0.59018396    -0.14800
C780        C  0.81825297  0.34559444  0.57228225    -0.14800
C781        C  0.83303097  0.33783021  0.54298079     0.07400
C782        C  0.81671849  0.30079373  0.53087552    -0.14800
H783        H  0.77521751  0.24313642  0.53968955     0.11400
H784        H  0.77856224  0.32336275  0.61322129     0.11400
H785        H  0.83005699  0.37394927  0.58198382     0.11400
H786        H  0.82791842  0.29417870  0.00838339     0.11400
C787        C  0.66471464  0.15367044  0.86202810    -0.14800
C788        C  0.65695937  0.16604319  0.83117497     0.07400
C789        C  0.61979764  0.15038810  0.81988273    -0.14800
C790        C  0.59088950  0.12146379  0.83816132    -0.14800
C791        C  0.59871775  0.10729800  0.86778012     0.07400
C792        C  0.63565495  0.12417458  0.88019923    -0.14800
H793        H  0.69329637  0.16556006  0.87116131     0.11400
H794        H  0.61315804  0.15999101  0.79644355     0.11400
H795        H  0.56255843  0.10926505  0.82828746     0.11400
H796        H  0.64220465  0.11379096  0.90317293     0.11400
C797        C  0.70318715  0.21001096  0.71650331    -0.17800
C798        C  0.72647168  0.23370206  0.69291324    -0.33000
H799        H  0.67804874  0.18470225  0.70814989     0.11200
H800        H  0.75120716  0.25935956  0.70132142     0.11800
C801        C  0.80413324  0.31129030  0.80451050    -0.14800
C802        C  0.78224543  0.27593618  0.81969585     0.07400
C803        C  0.79178625  0.27003326  0.85297824    -0.14800
C804        C  0.82180325  0.29896126  0.87097318    -0.14800
C805        C  0.84273528  0.33470217  0.85635541     0.07400
C806        C  0.83387865  0.34044719  0.82276265    -0.14800
H807        H  0.79741141  0.31681254  0.77908244     0.11400
H808        H  0.77562041  0.24304173  0.86541185     0.11400
H809        H  0.82798429  0.29360242  0.89668488     0.11400
H810        H  0.84969394  0.36768311  0.81069740     0.11400
C811        C  0.24757897  0.43838059  0.85221000    -0.14800
C812        C  0.25384846  0.45462406  0.81925270     0.07400
C813        C  0.28957197  0.46897760  0.80447312    -0.14800
C814        C  0.31862590  0.46829744  0.82274355    -0.14800
C815        C  0.31244856  0.45268379  0.85595463     0.07400
C816        C  0.27641943  0.43719454  0.87021523    -0.14800
H817        H  0.22032206  0.42685749  0.86433218     0.11400
H818        H  0.29540954  0.48184620  0.77929936     0.11400
H819        H  0.34607916  0.48030727  0.81093973     0.11400
H820        H  0.27070623  0.42487352  0.89562369     0.11400
C821        C  0.12130099  0.48254249  0.81566636    -0.14800
C822        C  0.14089136  0.46570053  0.82905172     0.07400
C823        C  0.13126049  0.44886088  0.86164317    -0.14800
C824        C  0.10121705  0.44744616  0.87980556    -0.14800
C825        C  0.08098197  0.46330676  0.86568802     0.07400
C826        C  0.09180659  0.48150466  0.83383892    -0.14800
H827        H  0.12843891  0.49618705  0.79081971     0.11400
H828        H  0.14605572  0.43574805  0.87249932     0.11400
H829        H  0.09345000  0.43348899  0.90448496     0.11400
H830        H  0.07687624  0.49421103  0.82243038     0.11400
C831        C  0.21394706  0.47002201  0.69190239    -0.17800
C832        C  0.18985374  0.46902101  0.71539044    -0.33000
H833        H  0.23927304  0.47035848  0.70034380     0.11200
H834        H  0.16482361  0.46923826  0.70687856     0.11800
C835        C  0.29688833  0.49092875  0.58839405    -0.14800
C836        C  0.25958912  0.47029300  0.57725814     0.07400
C837        C  0.25101230  0.44919004  0.54683905    -0.14800
C838        C  0.27936080  0.44710620  0.52889389    -0.14800
C839        C  0.31643900  0.46650890  0.54107678     0.07400
C840        C  0.32507881  0.48924938  0.57036633    -0.14800
H841        H  0.30417458  0.50782109  0.61152199     0.11400
H842        H  0.22229785  0.43306127  0.53787179     0.11400
H843        H  0.27216264  0.42958773  0.50620291     0.11400
H844        H  0.35352176  0.50490006  0.58008706     0.11400
C845        C  0.11395868  0.47218855  0.60413759    -0.14800
C846        C  0.13589686  0.45884448  0.58876586     0.07400
C847        C  0.12607560  0.44303230  0.55561536    -0.14800
C848        C  0.09547391  0.44099795  0.53807691    -0.14800
C849        C  0.07413830  0.45518177  0.55298899     0.07400
C850        C  0.08356027  0.47064991  0.58630116    -0.14800
H851        H  0.12092913  0.48475925  0.62946876     0.11400
H852        H  0.14226674  0.43232790  0.54301775     0.11400
H853        H  0.08894833  0.42892040  0.51253938     0.11400
H854        H  0.06752912  0.48174609  0.59853044     0.11400
C855        C  0.12873003  0.68819158  0.54743630    -0.14800
C856        C  0.14113998  0.68028051  0.57818332     0.07400
C857        C  0.12438899  0.64324210  0.58999368    -0.14800
C858        C  0.09449976  0.61467800  0.57226228    -0.14800
C859        C  0.08058305  0.62271151  0.54257658     0.07400
C860        C  0.09834548  0.65948695  0.52977394    -0.14800
H861        H  0.14136457  0.71668275  0.53796542     0.11400
H862        H  0.13390588  0.63646527  0.61341497     0.11400
H863        H  0.08159385  0.58645679  0.58245296     0.11400
H864        H  0.08815097  0.66618751  0.50675975     0.11400
C865        C  0.24753064  0.81258351  0.55408052    -0.14800
C866        C  0.25256794  0.80494043  0.58838134     0.07400
C867        C  0.28700838  0.82885747  0.60446712    -0.14800
C868        C  0.31609229  0.85873049  0.58621869    -0.14800
C869        C  0.31112615  0.86572786  0.55172333     0.07400
C870        C  0.27630325  0.84269284  0.53610324    -0.14800
H871        H  0.22131612  0.79493946  0.54082959     0.11400
H872        H  0.29189948  0.82377972  0.63072476     0.11400
H873        H  0.34262068  0.87622818  0.59904896     0.11400
H874        H  0.27159393  0.84734696  0.50965209     0.11400
C875        C  0.12542595  0.68974128  0.85384669    -0.14800
C876        C  0.13416526  0.68381027  0.82019219     0.07400
C877        C  0.11140057  0.64864943  0.80485492    -0.14800
C878        C  0.08141239  0.61982487  0.82315656    -0.14800
C879        C  0.07310800  0.62571024  0.85696041     0.07400
C880        C  0.09513984  0.66116853  0.87188426    -0.14800
H881        H  0.14225995  0.71655002  0.86646087     0.11400
H882        H  0.11744824  0.64306233  0.77914774     0.11400
H883        H  0.06480572  0.59278644  0.81086899     0.11400
H884        H  0.08947826  0.66660280  0.89779549     0.11400
C885        C  0.18671671  0.72679473  0.69224543    -0.17800
C886        C  0.21105093  0.74947728  0.71574155    -0.33000
H887        H  0.16122539  0.70190790  0.70067534     0.11200
H888        H  0.23683950  0.77399346  0.70724568     0.11800
C889        C  0.29509687  0.81549280  0.81597338    -0.14800
C890        C  0.25851024  0.79636500  0.82919405     0.07400
C891        C  0.25079425  0.80731365  0.86092992    -0.14800
C892        C  0.27909079  0.83831370  0.87834008    -0.14800
C893        C  0.31532586  0.85818376  0.86431080     0.07400
C894        C  0.32324583  0.84600554  0.83340783    -0.14800
H895        H  0.30184484  0.80730963  0.79172827     0.11400
H896        H  0.22267930  0.79292931  0.87152251     0.11400
H897        H  0.27250848  0.84713454  0.90230180     0.11400
H898        H  0.35104625  0.86061503  0.82215166     0.11400
C899        C  0.49390942  0.69001709  0.85962366    -0.14800
C900        C  0.47457127  0.68191321  0.82822864     0.07400
C901        C  0.45570678  0.64493940  0.81595761    -0.14800
C902        C  0.45698097  0.61666534  0.83408200    -0.14800
C903        C  0.47747103  0.62476849  0.86474003     0.07400
C904        C  0.49557146  0.66154485  0.87772603    -0.14800
H905        H  0.50868961  0.71842716  0.86950072     0.11400
H906        H  0.44017911  0.63786050  0.79204070     0.11400
H907        H  0.44250191  0.58852079  0.82357289     0.11400
H908        H  0.51140443  0.66834631  0.90143925     0.11400
C909        C  0.46234789  0.82146297  0.80526332    -0.14800
C910        C  0.48176110  0.80401981  0.81779894     0.07400
C911        C  0.50247415  0.81756541  0.84841408    -0.14800
C912        C  0.50348730  0.84756024  0.86632072    -0.14800
C913        C  0.48340719  0.86449141  0.85432031     0.07400
C914        C  0.46294474  0.85122724  0.82347429    -0.14800
H915        H  0.44580220  0.81135341  0.78199958     0.11400
H916        H  0.51781513  0.80474642  0.85867611     0.11400
H917        H  0.51964593  0.85718411  0.88982696     0.11400
H918        H  0.44713967  0.86367690  0.81352325     0.11400
C919        C  0.50172047  0.69187592  0.55554035    -0.14800
C920        C  0.48454231  0.68543975  0.58807657     0.07400
C921        C  0.46949641  0.64968517  0.60277335    -0.14800
C922        C  0.47053684  0.62070510  0.58477627    -0.14800
C923        C  0.48713985  0.62706915  0.55197443     0.07400
C924        C  0.50323407  0.66310972  0.53781246    -0.14800
H925        H  0.51374930  0.71920666  0.54355823     0.11400
H926        H  0.45585800  0.64380270  0.62762194     0.11400
H927        H  0.45800415  0.59318233  0.59642838     0.11400
H928        H  0.51629232  0.66889378  0.51269761     0.11400
C929        C  0.49168117  0.80838293  0.54539510    -0.14800
C930        C  0.47282322  0.79737530  0.57704238     0.07400
C931        C  0.45329025  0.81478172  0.58918186    -0.14800
C932        C  0.45369430  0.84371522  0.57078506    -0.14800
C933        C  0.47401916  0.85616097  0.54005256     0.07400
C934        C  0.49248653  0.83791905  0.52702833    -0.14800
H935        H  0.50687378  0.79517598  0.53558738     0.11400
H936        H  0.43804632  0.80636890  0.61325363     0.11400
H937        H  0.43890549  0.85704920  0.58126350     0.11400
H938        H  0.50816907  0.84701667  0.50322828     0.11400
C939        C  0.47062619  0.75027373  0.69119558    -0.17800
C940        C  0.47037454  0.72644948  0.71446934    -0.33000
H941        H  0.47040711  0.77527291  0.69981178     0.11200
H942        H  0.47019666  0.70125696  0.70582729     0.11800
loop_ 
_geom_bond_atom_site_label_1 
_geom_bond_atom_site_label_2 
_geom_bond_distance 
_geom_bond_site_symmetry_2 
_ccdc_geom_bond_type 
C1            N2   1.358       .  A
C1            N6   1.369       .  A
C1          C449   1.484       .  S
N2            C3   1.352       .  A
C3            N4   1.351       .  A
C3          C459   1.464       .  S
N4            C5   1.349       .  A
C5            N6   1.369       .  A
C5          C468   1.479       .  S
C7            N8   1.351       .  A
C7           N12   1.354       .  A
C7          C429   1.468       .  S
N8            C9   1.348       .  A
C9           N10   1.369       .  A
C9          C469   1.480       .  S
N10          C11   1.369       .  A
C11          N12   1.360       .  A
C11         C439   1.486       .  S
C13          N14   1.353       .  A
C13          N18   1.350       .  A
C13         C419   1.465       .  S
N14          C15   1.359       .  A
C15          N16   1.372       .  A
C15         C405   1.491       .  S
N16          C17   1.371       .  A
C17          N18   1.348       .  A
C17         C415   1.482       .  S
C19          N20   1.358       .  A
C19          N24   1.372       .  A
C19         C395   1.492       .  S
N20          C21   1.352       .  A
C21          N22   1.350       .  A
C21         C385   1.463       .  S
N22          C23   1.348       .  A
C23          N24   1.372       .  A
C23         C414   1.482       .  S
C25          N26   1.370       .  A
C25          N30   1.358       .  A
C25         C375   1.488       .  S
N26          C27   1.371       .  A
C27          N28   1.350       .  A
C27         C360   1.483       .  S
N28          C29   1.352       .  A
C29          N30   1.352       .  A
C29         C365   1.464       .  S
C31          N32   1.354       .  A
C31          N36   1.351       .  A
C31         C351   1.470       .  S
N32          C33   1.360       .  A
C33          N34   1.372       .  A
C33         C341   1.490       .  S
N34          C35   1.370       .  A
C35          N36   1.349       .  A
C35         C361   1.482       .  S
C37          N38   1.357       .  A
C37          N42   1.371       .  A
C37         C331   1.488       .  S
N38          C39   1.352       .  A
C39          N40   1.351       .  A
C39         C317   1.463       .  S
N40          C41   1.350       .  A
C41          N42   1.371       .  A
C41         C326   1.483       .  S
C43          N44   1.351       .  A
C43          N48   1.353       .  A
C43         C307   1.465       .  S
N44          C45   1.349       .  A
C45          N46   1.371       .  A
C45         C327   1.482       .  S
N46          C47   1.372       .  A
C47          N48   1.359       .  A
C47         C297   1.490       .  S
C49          N50   1.353       .  A
C49          N54   1.351       .  A
C49         C273   1.463       .  S
N50          C51   1.351       .  A
C51          N52   1.370       .  A
C51         C283   1.482       .  S
N52          C53   1.369       .  A
C53          N54   1.356       .  A
C53         C287   1.486       .  S
C55          N56   1.359       .  A
C55          N60   1.371       .  A
C55         C253   1.488       .  S
N56          C57   1.353       .  A
C57          N58   1.351       .  A
C57         C263   1.469       .  S
N58          C59   1.349       .  A
C59          N60   1.369       .  A
C59         C282   1.480       .  S
C61          N62   1.372       .  A
C61          N66   1.359       .  A
C61         C243   1.489       .  S
N62          C63   1.371       .  A
C63          N64   1.349       .  A
C63         C228   1.483       .  S
N64          C65   1.351       .  A
C65          N66   1.353       .  A
C65         C233   1.466       .  S
C67          N68   1.355       .  A
C67          N72   1.351       .  A
C67         C222   1.468       .  S
N68          C69   1.360       .  A
C69          N70   1.372       .  A
C69         C209   1.492       .  S
N70          C71   1.371       .  A
C71          N72   1.349       .  A
C71         C229   1.483       .  S
N73          N74   1.313       .  A
N73          N79   1.316       .  A
N73        Mn102   2.182       .  S
N74          C81   1.349       .  A
N75          N77   1.314       .  A
N75          N76   1.325       .  A
N75         Mn91   2.225       .  S
N76          C82   1.359       .  A
N77          N78   1.319       .  A
N77        Mn102   2.187       .  S
N78          C82   1.350       .  A
N79          N80   1.322       .  A
N79         Mn91   2.203       .  S
N80          C81   1.355       .  A
C81         C432   1.468       .  S
C82         C256   1.484       .  S
N83          N84   1.312       .  A
N83         N560   1.315   1_554  A
N83        Mn113   2.174       .  S
N84          C92   1.347       .  A
N85          N86   1.325       .  A
N85         N558   1.314       .  A
N85         Mn91   2.225       .  S
N86         C564   1.359       .  A
N87          N88   1.318       .  A
N87         N556   1.315   1_554  A
N87        Mn113   2.184       .  S
N88          C93   1.349       .  A
N89          N90   1.321       .  A
N89         N554   1.315       .  A
N89         Mn91   2.201       .  S
N90         C563   1.355       .  A
Mn91       Cl115   2.566       .  S
C92         N561   1.355   1_554  A
C92         C276   1.464       .  S
C93         N557   1.359       .  A
C93         C452   1.483       .  S
N94          N95   1.313       .  A
N94         N100   1.316       .  A
N94        Mn102   2.179       .  S
N95         C103   1.348       .  A
N96          N98   1.315       .  A
N96          N97   1.326       .  A
N96        Mn114   2.234       .  S
N97         C104   1.360       .  A
N98          N99   1.320       .  A
N98        Mn102   2.189       .  S
N99         C104   1.350       .  A
N100        N101   1.321       .  A
N100       Mn114   2.201       .  S
N101        C103   1.355       .  A
Mn102      Cl115   2.526       .  S
C103        C236   1.466       .  S
C104        C344   1.488       .  S
N105        N106   1.313       .  A
N105        N582   1.316   1_554  A
N105       Mn113   2.178       .  S
N106        C116   1.348       .  A
N107        N108   1.327       .  A
N107        N580   1.315       .  A
N107       Mn114   2.239       .  S
N108        C588   1.361       .  A
N109        N110   1.319       .  A
N109        N578   1.315   1_554  A
N109       Mn113   2.186       .  S
N110        C117   1.350       .  A
N111        N112   1.321       .  A
N111        N576   1.316       .  A
N111       Mn114   2.201       .  S
N112        C587   1.355       .  A
Mn113      Cl586   2.525   1_554  S
Mn114      Cl115   2.566       .  S
Cl115      Mn584   2.526       .  S
C116        N583   1.355   1_554  A
C116        C368   1.466       .  S
C117        N579   1.361       .  A
C117        C212   1.490       .  S
N118        N119   1.313   1_655  A
N118        N595   1.316   1_554  A
N118       Mn147   2.178       .  S
N119        C126   1.348       .  A
N120        N121   1.325       .  A
N120        N593   1.315       .  A
N120       Mn136   2.229       .  S
N121        C598   1.359       .  A
N122        N123   1.319       .  A
N122        N591   1.315   1_554  A
N122       Mn147   2.185       .  S
N123        C127   1.349       .  A
N124        N125   1.320   1_655  A
N124        N589   1.316       .  A
N124       Mn136   2.197       .  S
N125        C597   1.354       .  A
C126        N596   1.354   1_554  A
C126        C388   1.464       .  S
C127        N592   1.359       .  A
C127        C290   1.483       .  S
N128        N134   1.316       .  A
N128        N129   1.314       .  A
N128       Mn158   2.185       .  S
N129        C137   1.350       .  A
N130        N131   1.326   1_655  A
N130        N132   1.315       .  A
N130       Mn136   2.233       .  S
N131        C138   1.360       .  A
N132        N133   1.319   1_655  A
N132       Mn158   2.188       .  S
N133        C138   1.350       .  A
N134        N135   1.321       .  A
N134       Mn136   2.199       .  S
N135        C137   1.354       .  A
Mn136      Cl160   2.564       .  S
C137        C266   1.467       .  S
C138        C408   1.487       .  S
N139        N140   1.314       .  A
N139        N616   1.316   1_554  A
N139       Mn147   2.183       .  S
N140        C148   1.350       .  A
N141        N142   1.325       .  A
N141        N614   1.315   1_455  A
N141       Mn159   2.230   1_455  S
N142        C620   1.360       .  A
N143        N144   1.320   1_655  A
N143        N612   1.315   1_654  A
N143       Mn147   2.186       .  S
N144        C149   1.350       .  A
N145        N146   1.321       .  A
N145        N610   1.316       .  A
N145       Mn159   2.199       .  S
N146        C619   1.354       .  A
Mn147      Cl631   2.530   1_554  S
C148        N617   1.354   1_554  A
C148        C310   1.467       .  S
C149        N613   1.360       .  A
C149        C378   1.486       .  S
N150        N151   1.313       .  A
N150        N156   1.316       .  A
N150       Mn158   2.181   1_455  S
N151        C161   1.349       .  A
N152        N153   1.326       .  A
N152        N154   1.315       .  A
N152       Mn159   2.231       .  S
N153        C162   1.360       .  A
N154        N155   1.319       .  A
N154       Mn158   2.189       .  S
N155        C162   1.350       .  A
N156        N157   1.322       .  A
N156       Mn159   2.201   1_455  S
N157        C161   1.355       .  A
Mn158      Cl160   2.528       .  S
Mn159      Cl160   2.564       .  S
Cl160      Mn618   2.529       .  S
C161        C354   1.468       .  S
C162        C334   1.486       .  S
N163        N164   1.313       .  A
N163        N640   1.316   1_554  A
N163       Mn192   2.182       .  S
N164        C171   1.349       .  A
N165        N166   1.326       .  A
N165        N638   1.315       .  A
N165       Mn181   2.229   1_545  S
N166        C643   1.359       .  A
N167        N168   1.320       .  A
N167        N636   1.315   1_554  A
N167       Mn192   2.192   1_545  S
N168        C172   1.351       .  A
N169        N170   1.321       .  A
N169        N634   1.316       .  A
N169       Mn181   2.193       .  S
N170        C642   1.354       .  A
C171        N641   1.354   1_554  A
C171        C462   1.464       .  S
C172        N637   1.359       .  A
C172        C300   1.488       .  S
N173        N179   1.315       .  A
N173        N174   1.313       .  A
N173       Mn203   2.178   1_545  S
N174        C182   1.349       .  A
N175        N176   1.325       .  A
N175        N177   1.314       .  A
N175       Mn181   2.230       .  S
N176        C183   1.359       .  A
N177        N178   1.321       .  A
N177       Mn203   2.192       .  S
N178        C183   1.351       .  A
N179        N180   1.320       .  A
N179       Mn181   2.193   1_545  S
N180        C182   1.354       .  A
Mn181      Cl205   2.567       .  S
C182        C320   1.464       .  S
C183        C442   1.489       .  S
N184        N185   1.314       .  A
N184        N661   1.316   1_554  A
N184       Mn192   2.184   1_545  S
N185        C193   1.349       .  A
N186        N187   1.326       .  A
N186        N659   1.315       .  A
N186       Mn204   2.236       .  S
N187        C665   1.360       .  A
N188        N189   1.320       .  A
N188        N657   1.315   1_554  A
N188       Mn192   2.188       .  S
N189        C194   1.350       .  A
N190        N191   1.321       .  A
N190        N655   1.316       .  A
N190       Mn204   2.203   1_545  S
N191        C664   1.354       .  A
Mn192      Cl676   2.527   1_554  S
C193        N662   1.354   1_554  A
C193        C219   1.468       .  S
C194        N658   1.360       .  A
C194        C398   1.487       .  S
N195        N196   1.313       .  A
N195        N201   1.316       .  A
N195       Mn203   2.175       .  S
N196        C206   1.348       .  A
N197        N198   1.327       .  A
N197        N199   1.315       .  A
N197       Mn204   2.239   1_545  S
N198        C207   1.362       .  A
N199        N200   1.318       .  A
N199       Mn203   2.185   1_545  S
N200        C207   1.349       .  A
N201        N202   1.321       .  A
N201       Mn204   2.203       .  S
N202        C206   1.355       .  A
Mn203      Cl205   2.527       .  S
Mn204      Cl205   2.566       .  S
Cl205      Mn663   2.527       .  S
C206        C422   1.465       .  S
C207        C246   1.489       .  S
C208        C209   1.404       .  A
C208        C213   1.405       .  A
C208        H214   1.083       .  S
C209        C210   1.411       .  A
C210        C211   1.402       .  A
C210        H215   1.083       .  S
C211        C212   1.402       .  A
C211        H687   1.083       .  S
C212        C213   1.411       .  A
C213        H217   1.083       .  S
H216        C682   1.083       .  S
C218        C219   1.404       .  A
C218        C223   1.399       .  A
C218        H224   1.083       .  S
C219        C220   1.402       .  A
C220        C221   1.388       .  A
C220        H225   1.083       .  S
C221        C222   1.402       .  A
C221        H226   1.084       .  S
C222        C223   1.404       .  A
C223        H227   1.083       .  S
C228        C229   1.333       .  D
C228        H230   1.087       .  S
C229        H231   1.087       .  S
C232        C233   1.401       .  A
C232        C237   1.387       .  A
C232        H238   1.084       .  S
C233        C234   1.405       .  A
C234        C235   1.398       .  A
C234        H239   1.083       .  S
C235        C236   1.403       .  A
C235        H240   1.083       .  S
C236        C237   1.402       .  A
C237        H241   1.083       .  S
C242        C243   1.403       .  A
C242        C247   1.404       .  A
C242        H248   1.083       .  S
C243        C244   1.411       .  A
C244        C245   1.402       .  A
C244        H249   1.083       .  S
C245        C246   1.402       .  A
C245        H250   1.083       .  S
C246        C247   1.411       .  A
C247        H251   1.083       .  S
C252        C253   1.404       .  A
C252        C257   1.403       .  A
C252        H258   1.083       .  S
C253        C254   1.411       .  A
C254        C255   1.399       .  A
C254        H259   1.083       .  S
C255        C256   1.401       .  A
C255        H260   1.083       .  S
C256        C257   1.409       .  A
C257        H261   1.083       .  S
C262        C263   1.405       .  A
C262        C267   1.399       .  A
C262        H268   1.083       .  S
C263        C264   1.402       .  A
C264        C265   1.387       .  A
C264        H269   1.083       .  S
C265        C266   1.401       .  A
C265        H270   1.083       .  S
C266        C267   1.404       .  A
C267        H271   1.083       .  S
C272        C273   1.405       .  A
C272        C277   1.396       .  A
C272        H278   1.083       .  S
C273        C274   1.399       .  A
C274        C275   1.387       .  A
C274        H279   1.084       .  S
C275        C276   1.404       .  A
C275        H280   1.083       .  S
C276        C277   1.402       .  A
C277        H752   1.083       .  S
H281        C748   1.083       .  S
C282        C283   1.334       .  D
C282        H284   1.087       .  S
C283        H285   1.087       .  S
C286        C287   1.403       .  A
C286        C291   1.403       .  A
C286        H292   1.083       .  S
C287        C288   1.410       .  A
C288        C289   1.399       .  A
C288        H293   1.083       .  S
C289        C290   1.401       .  A
C289        H294   1.083       .  S
C290        C291   1.410       .  A
C291        H295   1.083       .  S
C296        C297   1.411       .  A
C296        C301   1.401       .  A
C296        H302   1.083       .  S
C297        C298   1.404       .  A
C298        C299   1.404       .  A
C298        H303   1.083       .  S
C299        C300   1.410       .  A
C299        H304   1.083       .  S
C300        C301   1.402       .  A
C301        H305   1.083       .  S
C306        C307   1.404       .  A
C306        C311   1.398       .  A
C306        H312   1.083       .  S
C307        C308   1.401       .  A
C308        C309   1.388       .  A
C308        H313   1.084       .  S
C309        C310   1.402       .  A
C309        H314   1.083       .  S
C310        C311   1.404       .  A
C311        H786   1.083       .  S
H315        C782   1.083       .  S
C316        C317   1.404       .  A
C316        C321   1.397       .  A
C316        H322   1.083       .  S
C317        C318   1.400       .  A
C318        C319   1.386       .  A
C318        H323   1.084       .  S
C319        C320   1.402       .  A
C319        H324   1.083       .  S
C320        C321   1.403       .  A
C321        H325   1.083       .  S
C326        C327   1.333       .  D
C326        H328   1.087       .  S
C327        H329   1.087       .  S
C330        C331   1.403       .  A
C330        C335   1.404       .  A
C330        H336   1.083       .  S
C331        C332   1.411       .  A
C332        C333   1.400       .  A
C332        H337   1.083       .  S
C333        C334   1.401       .  A
C333        H338   1.083       .  S
C334        C335   1.410       .  A
C335        H339   1.083       .  S
C340        C341   1.411       .  A
C340        C345   1.401       .  A
C340        H346   1.083       .  S
C341        C342   1.404       .  A
C342        C343   1.405       .  A
C342        H347   1.083       .  S
C343        C344   1.410       .  A
C343        H348   1.083       .  S
C344        C345   1.402       .  A
C345        H349   1.083       .  S
C350        C351   1.402       .  A
C350        C355   1.387       .  A
C350        H356   1.083       .  S
C351        C352   1.405       .  A
C352        C353   1.400       .  A
C352        H357   1.083       .  S
C353        C354   1.404       .  A
C353        H358   1.083       .  S
C354        C355   1.402       .  A
C355        H359   1.083       .  S
C360        C361   1.334       .  D
C360        H362   1.087       .  S
C361        H363   1.087       .  S
C364        C365   1.400       .  A
C364        C369   1.387       .  A
C364        H370   1.084       .  S
C365        C366   1.405       .  A
C366        C367   1.399       .  A
C366        H371   1.083       .  S
C367        C368   1.404       .  A
C367        H372   1.083       .  S
C368        C369   1.403       .  A
C369        H373   1.083       .  S
C374        C375   1.404       .  A
C374        C379   1.405       .  A
C374        H380   1.083       .  S
C375        C376   1.410       .  A
C376        C377   1.399       .  A
C376        H381   1.083       .  S
C377        C378   1.401       .  A
C377        H382   1.083       .  S
C378        C379   1.410       .  A
C379        H383   1.083       .  S
C384        C385   1.404       .  A
C384        C389   1.397       .  A
C384        H390   1.083       .  S
C385        C386   1.401       .  A
C386        C387   1.386       .  A
C386        H391   1.084       .  S
C387        C388   1.402       .  A
C387        H392   1.083       .  S
C388        C389   1.403       .  A
C389        H393   1.083       .  S
C394        C395   1.412       .  A
C394        C399   1.400       .  A
C394        H400   1.083       .  S
C395        C396   1.404       .  A
C396        C397   1.406       .  A
C396        H401   1.083       .  S
C397        C398   1.411       .  A
C397        H402   1.083       .  S
C398        C399   1.400       .  A
C399        H403   1.083       .  S
C404        C405   1.412       .  A
C404        C409   1.401       .  A
C404        H410   1.083       .  S
C405        C406   1.403       .  A
C406        C407   1.405       .  A
C406        H411   1.083       .  S
C407        C408   1.410       .  A
C407        H412   1.083       .  S
C408        C409   1.401       .  A
C409        H413   1.083       .  S
C414        C415   1.332       .  D
C414        H416   1.087       .  S
C415        H417   1.087       .  S
C418        C419   1.401       .  A
C418        C423   1.386       .  A
C418        H424   1.084       .  S
C419        C420   1.404       .  A
C420        C421   1.398       .  A
C420        H425   1.083       .  S
C421        C422   1.403       .  A
C421        H426   1.083       .  S
C422        C423   1.402       .  A
C423        H427   1.083       .  S
C428        C429   1.405       .  A
C428        C433   1.400       .  A
C428        H434   1.083       .  S
C429        C430   1.401       .  A
C430        C431   1.386       .  A
C430        H435   1.084       .  S
C431        C432   1.402       .  A
C431        H436   1.083       .  S
C432        C433   1.404       .  A
C433        H437   1.083       .  S
C438        C439   1.404       .  A
C438        C443   1.405       .  A
C438        H444   1.083       .  S
C439        C440   1.408       .  A
C440        C441   1.400       .  A
C440        H445   1.083       .  S
C441        C442   1.403       .  A
C441        H446   1.083       .  S
C442        C443   1.410       .  A
C443        H447   1.083       .  S
C448        C449   1.409       .  A
C448        C453   1.398       .  A
C448        H454   1.083       .  S
C449        C450   1.403       .  A
C450        C451   1.402       .  A
C450        H455   1.083       .  S
C451        C452   1.409       .  A
C451        H456   1.083       .  S
C452        C453   1.401       .  A
C453        H457   1.083       .  S
C458        C459   1.405       .  A
C458        C463   1.398       .  A
C458        H464   1.083       .  S
C459        C460   1.400       .  A
C460        C461   1.385       .  A
C460        H465   1.084       .  S
C461        C462   1.402       .  A
C461        H466   1.083       .  S
C462        C463   1.404       .  A
C463        H467   1.083       .  S
C468        C469   1.333       .  D
C468        H470   1.087       .  S
C469        H471   1.087       .  S
C472        N473   1.358       .  A
C472        N477   1.369       .  A
C472        C920   1.484       .  S
N473        C474   1.352       .  A
C474        N475   1.351       .  A
C474        C930   1.464       .  S
N475        C476   1.349       .  A
C476        N477   1.369       .  A
C476        C939   1.479       .  S
C478        N479   1.351       .  A
C478        N483   1.354       .  A
C478        C900   1.467       .  S
N479        C480   1.349       .  A
C480        N481   1.369       .  A
C480        C940   1.480       .  S
N481        C482   1.369       .  A
C482        N483   1.360       .  A
C482        C910   1.486       .  S
C484        N485   1.353       .  A
C484        N489   1.350       .  A
C484        C890   1.465       .  S
N485        C486   1.359       .  A
C486        N487   1.372       .  A
C486        C876   1.491       .  S
N487        C488   1.371       .  A
C488        N489   1.348       .  A
C488        C886   1.482       .  S
C490        N491   1.358       .  A
C490        N495   1.372       .  A
C490        C866   1.492       .  S
N491        C492   1.352       .  A
C492        N493   1.350       .  A
C492        C856   1.463       .  S
N493        C494   1.348       .  A
C494        N495   1.372       .  A
C494        C885   1.482       .  S
C496        N497   1.370       .  A
C496        N501   1.358       .  A
C496        C846   1.488       .  S
N497        C498   1.370       .  A
C498        N499   1.350       .  A
C498        C831   1.483       .  S
N499        C500   1.352       .  A
C500        N501   1.352       .  A
C500        C836   1.464       .  S
C502        N503   1.354       .  A
C502        N507   1.351       .  A
C502        C822   1.470       .  S
N503        C504   1.360       .  A
C504        N505   1.372       .  A
C504        C812   1.490       .  S
N505        C506   1.370       .  A
C506        N507   1.349       .  A
C506        C832   1.482       .  S
C508        N509   1.357       .  A
C508        N513   1.371       .  A
C508        C802   1.488       .  S
N509        C510   1.352       .  A
C510        N511   1.351       .  A
C510        C788   1.463       .  S
N511        C512   1.349       .  A
C512        N513   1.371       .  A
C512        C797   1.483       .  S
C514        N515   1.351       .  A
C514        N519   1.353       .  A
C514        C778   1.465       .  S
N515        C516   1.349       .  A
C516        N517   1.371       .  A
C516        C798   1.482       .  S
N517        C518   1.372       .  A
C518        N519   1.359       .  A
C518        C768   1.490       .  S
C520        N521   1.353       .  A
C520        N525   1.351       .  A
C520        C744   1.463       .  S
N521        C522   1.351       .  A
C522        N523   1.370       .  A
C522        C754   1.482       .  S
N523        C524   1.369       .  A
C524        N525   1.356       .  A
C524        C758   1.486       .  S
C526        N527   1.359       .  A
C526        N531   1.371       .  A
C526        C724   1.488       .  S
N527        C528   1.353       .  A
C528        N529   1.351       .  A
C528        C734   1.469       .  S
N529        C530   1.349       .  A
C530        N531   1.369       .  A
C530        C753   1.480       .  S
C532        N533   1.372       .  A
C532        N537   1.358       .  A
C532        C714   1.489       .  S
N533        C534   1.371       .  A
C534        N535   1.349       .  A
C534        C699   1.483       .  S
N535        C536   1.351       .  A
C536        N537   1.353       .  A
C536        C704   1.466       .  S
C538        N539   1.355       .  A
C538        N543   1.351       .  A
C538        C693   1.468       .  S
N539        C540   1.360       .  A
C540        N541   1.372       .  A
C540        C680   1.492       .  S
N541        C542   1.371       .  A
C542        N543   1.349       .  A
C542        C700   1.483       .  S
N544        N545   1.313       .  A
N544        N550   1.316       .  A
N544       Mn573   2.182       .  S
N545        C552   1.349       .  A
N546        N548   1.314       .  A
N546        N547   1.325       .  A
N546       Mn562   2.226       .  S
N547        C553   1.359       .  A
N548        N549   1.319       .  A
N548       Mn573   2.187       .  S
N549        C553   1.350       .  A
N550        N551   1.322       .  A
N550       Mn562   2.203       .  S
N551        C552   1.355       .  A
C552        C903   1.468       .  S
C553        C727   1.484       .  S
N554        N555   1.312       .  A
N554       Mn584   2.174       .  S
N555        C563   1.347       .  A
N556        N557   1.325   1_556  A
N556       Mn562   2.225       .  S
N558        N559   1.318       .  A
N558       Mn584   2.184       .  S
N559        C564   1.349       .  A
N560        N561   1.321       .  A
N560       Mn562   2.201       .  S
Mn562      Cl586   2.566       .  S
C563        C747   1.465       .  S
C564        C923   1.483       .  S
N565        N566   1.313       .  A
N565        N571   1.316       .  A
N565       Mn573   2.179       .  S
N566        C574   1.348       .  A
N567        N569   1.315       .  A
N567        N568   1.326       .  A
N567       Mn585   2.234       .  S
N568        C575   1.360       .  A
N569        N570   1.320       .  A
N569       Mn573   2.189       .  S
N570        C575   1.350       .  A
N571        N572   1.321       .  A
N571       Mn585   2.201       .  S
N572        C574   1.355       .  A
Mn573      Cl586   2.526       .  S
C574        C707   1.466       .  S
C575        C815   1.488       .  S
N576        N577   1.313       .  A
N576       Mn584   2.178       .  S
N577        C587   1.348       .  A
N578        N579   1.327   1_556  A
N578       Mn585   2.239       .  S
N580        N581   1.319       .  A
N580       Mn584   2.186       .  S
N581        C588   1.350       .  A
N582        N583   1.321       .  A
N582       Mn585   2.201       .  S
Mn585      Cl586   2.566       .  S
C587        C839   1.466       .  S
C588        C683   1.490       .  S
N589        N590   1.313   1_655  A
N589       Mn618   2.178       .  S
N590        C597   1.348       .  A
N591        N592   1.325   1_556  A
N591       Mn607   2.229       .  S
N593        N594   1.319       .  A
N593       Mn618   2.185       .  S
N594        C598   1.349       .  A
N595        N596   1.320   1_655  A
N595       Mn607   2.197       .  S
C597        C859   1.464       .  S
C598        C761   1.483       .  S
N599        N605   1.316       .  A
N599        N600   1.315       .  A
N599       Mn629   2.185       .  S
N600        C608   1.350       .  A
N601        N602   1.326   1_655  A
N601        N603   1.315       .  A
N601       Mn607   2.233       .  S
N602        C609   1.360       .  A
N603        N604   1.319   1_655  A
N603       Mn629   2.188       .  S
N604        C609   1.350       .  A
N605        N606   1.321       .  A
N605       Mn607   2.199       .  S
N606        C608   1.354       .  A
Mn607      Cl631   2.564       .  S
C608        C737   1.467       .  S
C609        C879   1.487       .  S
N610        N611   1.314       .  A
N610       Mn618   2.183       .  S
N611        C619   1.350       .  A
N612        N613   1.325   1_556  A
N612       Mn630   2.230   1_455  S
N614        N615   1.320   1_655  A
N614       Mn618   2.186       .  S
N615        C620   1.350       .  A
N616        N617   1.321       .  A
N616       Mn630   2.199       .  S
C619        C781   1.467       .  S
C620        C849   1.486       .  S
N621        N622   1.313       .  A
N621        N627   1.316       .  A
N621       Mn629   2.182   1_455  S
N622        C632   1.349       .  A
N623        N624   1.326       .  A
N623        N625   1.315       .  A
N623       Mn630   2.231       .  S
N624        C633   1.360       .  A
N625        N626   1.319       .  A
N625       Mn629   2.189       .  S
N626        C633   1.350       .  A
N627        N628   1.322       .  A
N627       Mn630   2.201   1_455  S
N628        C632   1.355       .  A
Mn629      Cl631   2.529       .  S
Mn630      Cl631   2.564       .  S
C632        C825   1.468       .  S
C633        C805   1.486       .  S
N634        N635   1.313       .  A
N634       Mn663   2.182       .  S
N635        C642   1.349       .  A
N636        N637   1.326   1_556  A
N636       Mn652   2.229   1_545  S
N638        N639   1.320       .  A
N638       Mn663   2.192   1_545  S
N639        C643   1.351       .  A
N640        N641   1.321       .  A
N640       Mn652   2.193       .  S
C642        C933   1.464       .  S
C643        C771   1.488       .  S
N644        N650   1.315       .  A
N644        N645   1.313       .  A
N644       Mn674   2.178   1_545  S
N645        C653   1.349       .  A
N646        N647   1.325       .  A
N646        N648   1.314       .  A
N646       Mn652   2.229       .  S
N647        C654   1.359       .  A
N648        N649   1.321       .  A
N648       Mn674   2.191       .  S
N649        C654   1.351       .  A
N650        N651   1.320       .  A
N650       Mn652   2.192   1_545  S
N651        C653   1.353       .  A
Mn652      Cl676   2.566       .  S
C653        C791   1.464       .  S
C654        C913   1.488       .  S
N655        N656   1.314       .  A
N655       Mn663   2.184   1_545  S
N656        C664   1.349       .  A
N657        N658   1.326   1_556  A
N657       Mn675   2.236       .  S
N659        N660   1.320       .  A
N659       Mn663   2.189       .  S
N660        C665   1.350       .  A
N661        N662   1.321       .  A
N661       Mn675   2.203   1_545  S
C664        C690   1.468       .  S
C665        C869   1.487       .  S
N666        N667   1.313       .  A
N666        N672   1.316       .  A
N666       Mn674   2.175       .  S
N667        C677   1.348       .  A
N668        N669   1.327       .  A
N668        N670   1.315       .  A
N668       Mn675   2.239   1_545  S
N669        C678   1.362       .  A
N670        N671   1.318       .  A
N670       Mn674   2.185   1_545  S
N671        C678   1.349       .  A
N672        N673   1.321       .  A
N672       Mn675   2.204       .  S
N673        C677   1.355       .  A
Mn674      Cl676   2.527       .  S
Mn675      Cl676   2.566       .  S
C677        C893   1.465       .  S
C678        C717   1.489       .  S
C679        C680   1.404       .  A
C679        C684   1.405       .  A
C679        H685   1.083       .  S
C680        C681   1.411       .  A
C681        C682   1.402       .  A
C681        H686   1.083       .  S
C682        C683   1.402       .  A
C683        C684   1.411       .  A
C684        H688   1.083       .  S
C689        C690   1.404       .  A
C689        C694   1.399       .  A
C689        H695   1.083       .  S
C690        C691   1.402       .  A
C691        C692   1.388       .  A
C691        H696   1.083       .  S
C692        C693   1.402       .  A
C692        H697   1.084       .  S
C693        C694   1.404       .  A
C694        H698   1.083       .  S
C699        C700   1.333       .  D
C699        H701   1.087       .  S
C700        H702   1.087       .  S
C703        C704   1.401       .  A
C703        C708   1.387       .  A
C703        H709   1.084       .  S
C704        C705   1.404       .  A
C705        C706   1.398       .  A
C705        H710   1.083       .  S
C706        C707   1.403       .  A
C706        H711   1.083       .  S
C707        C708   1.402       .  A
C708        H712   1.083       .  S
C713        C714   1.403       .  A
C713        C718   1.404       .  A
C713        H719   1.083       .  S
C714        C715   1.411       .  A
C715        C716   1.402       .  A
C715        H720   1.083       .  S
C716        C717   1.402       .  A
C716        H721   1.083       .  S
C717        C718   1.411       .  A
C718        H722   1.083       .  S
C723        C724   1.404       .  A
C723        C728   1.403       .  A
C723        H729   1.083       .  S
C724        C725   1.411       .  A
C725        C726   1.400       .  A
C725        H730   1.083       .  S
C726        C727   1.401       .  A
C726        H731   1.083       .  S
C727        C728   1.409       .  A
C728        H732   1.083       .  S
C733        C734   1.405       .  A
C733        C738   1.399       .  A
C733        H739   1.083       .  S
C734        C735   1.403       .  A
C735        C736   1.387       .  A
C735        H740   1.083       .  S
C736        C737   1.402       .  A
C736        H741   1.083       .  S
C737        C738   1.404       .  A
C738        H742   1.083       .  S
C743        C744   1.405       .  A
C743        C748   1.396       .  A
C743        H749   1.083       .  S
C744        C745   1.399       .  A
C745        C746   1.387       .  A
C745        H750   1.084       .  S
C746        C747   1.404       .  A
C746        H751   1.083       .  S
C747        C748   1.402       .  A
C753        C754   1.334       .  D
C753        H755   1.087       .  S
C754        H756   1.087       .  S
C757        C758   1.403       .  A
C757        C762   1.403       .  A
C757        H763   1.083       .  S
C758        C759   1.410       .  A
C759        C760   1.398       .  A
C759        H764   1.083       .  S
C760        C761   1.400       .  A
C760        H765   1.083       .  S
C761        C762   1.410       .  A
C762        H766   1.083       .  S
C767        C768   1.411       .  A
C767        C772   1.401       .  A
C767        H773   1.083       .  S
C768        C769   1.404       .  A
C769        C770   1.404       .  A
C769        H774   1.083       .  S
C770        C771   1.410       .  A
C770        H775   1.083       .  S
C771        C772   1.402       .  A
C772        H776   1.083       .  S
C777        C778   1.404       .  A
C777        C782   1.398       .  A
C777        H783   1.083       .  S
C778        C779   1.401       .  A
C779        C780   1.388       .  A
C779        H784   1.084       .  S
C780        C781   1.402       .  A
C780        H785   1.083       .  S
C781        C782   1.404       .  A
C787        C788   1.404       .  A
C787        C792   1.397       .  A
C787        H793   1.083       .  S
C788        C789   1.400       .  A
C789        C790   1.386       .  A
C789        H794   1.084       .  S
C790        C791   1.402       .  A
C790        H795   1.083       .  S
C791        C792   1.403       .  A
C792        H796   1.083       .  S
C797        C798   1.333       .  D
C797        H799   1.087       .  S
C798        H800   1.087       .  S
C801        C802   1.403       .  A
C801        C806   1.404       .  A
C801        H807   1.083       .  S
C802        C803   1.411       .  A
C803        C804   1.400       .  A
C803        H808   1.083       .  S
C804        C805   1.401       .  A
C804        H809   1.083       .  S
C805        C806   1.410       .  A
C806        H810   1.083       .  S
C811        C812   1.411       .  A
C811        C816   1.401       .  A
C811        H817   1.083       .  S
C812        C813   1.404       .  A
C813        C814   1.404       .  A
C813        H818   1.083       .  S
C814        C815   1.410       .  A
C814        H819   1.083       .  S
C815        C816   1.402       .  A
C816        H820   1.083       .  S
C821        C822   1.402       .  A
C821        C826   1.387       .  A
C821        H827   1.083       .  S
C822        C823   1.405       .  A
C823        C824   1.400       .  A
C823        H828   1.083       .  S
C824        C825   1.404       .  A
C824        H829   1.083       .  S
C825        C826   1.402       .  A
C826        H830   1.083       .  S
C831        C832   1.334       .  D
C831        H833   1.087       .  S
C832        H834   1.087       .  S
C835        C836   1.400       .  A
C835        C840   1.387       .  A
C835        H841   1.084       .  S
C836        C837   1.405       .  A
C837        C838   1.398       .  A
C837        H842   1.083       .  S
C838        C839   1.404       .  A
C838        H843   1.083       .  S
C839        C840   1.403       .  A
C840        H844   1.083       .  S
C845        C846   1.404       .  A
C845        C850   1.405       .  A
C845        H851   1.083       .  S
C846        C847   1.410       .  A
C847        C848   1.399       .  A
C847        H852   1.083       .  S
C848        C849   1.401       .  A
C848        H853   1.083       .  S
C849        C850   1.410       .  A
C850        H854   1.083       .  S
C855        C856   1.404       .  A
C855        C860   1.397       .  A
C855        H861   1.083       .  S
C856        C857   1.401       .  A
C857        C858   1.386       .  A
C857        H862   1.084       .  S
C858        C859   1.402       .  A
C858        H863   1.083       .  S
C859        C860   1.403       .  A
C860        H864   1.083       .  S
C865        C866   1.412       .  A
C865        C870   1.400       .  A
C865        H871   1.083       .  S
C866        C867   1.404       .  A
C867        C868   1.406       .  A
C867        H872   1.083       .  S
C868        C869   1.411       .  A
C868        H873   1.083       .  S
C869        C870   1.400       .  A
C870        H874   1.083       .  S
C875        C876   1.411       .  A
C875        C880   1.401       .  A
C875        H881   1.083       .  S
C876        C877   1.404       .  A
C877        C878   1.405       .  A
C877        H882   1.083       .  S
C878        C879   1.410       .  A
C878        H883   1.083       .  S
C879        C880   1.401       .  A
C880        H884   1.083       .  S
C885        C886   1.332       .  D
C885        H887   1.087       .  S
C886        H888   1.087       .  S
C889        C890   1.401       .  A
C889        C894   1.386       .  A
C889        H895   1.084       .  S
C890        C891   1.404       .  A
C891        C892   1.398       .  A
C891        H896   1.083       .  S
C892        C893   1.403       .  A
C892        H897   1.083       .  S
C893        C894   1.402       .  A
C894        H898   1.083       .  S
C899        C900   1.405       .  A
C899        C904   1.400       .  A
C899        H905   1.083       .  S
C900        C901   1.401       .  A
C901        C902   1.386       .  A
C901        H906   1.084       .  S
C902        C903   1.402       .  A
C902        H907   1.083       .  S
C903        C904   1.404       .  A
C904        H908   1.083       .  S
C909        C910   1.404       .  A
C909        C914   1.405       .  A
C909        H915   1.083       .  S
C910        C911   1.408       .  A
C911        C912   1.400       .  A
C911        H916   1.083       .  S
C912        C913   1.403       .  A
C912        H917   1.083       .  S
C913        C914   1.410       .  A
C914        H918   1.083       .  S
C919        C920   1.409       .  A
C919        C924   1.398       .  A
C919        H925   1.083       .  S
C920        C921   1.403       .  A
C921        C922   1.402       .  A
C921        H926   1.083       .  S
C922        C923   1.409       .  A
C922        H927   1.083       .  S
C923        C924   1.401       .  A
C924        H928   1.083       .  S
C929        C930   1.405       .  A
C929        C934   1.398       .  A
C929        H935   1.083       .  S
C930        C931   1.400       .  A
C931        C932   1.385       .  A
C931        H936   1.084       .  S
C932        C933   1.402       .  A
C932        H937   1.083       .  S
C933        C934   1.404       .  A
C934        H938   1.083       .  S
C939        C940   1.333       .  D
C939        H941   1.087       .  S
C940        H942   1.087       .  S
