geometry optimzed in LAMMPS
_audit_creation_date              2020-12-01 
_audit_creation_method            'lammps2cif' 
_symmetry_space_group_name_H-M    'P1' 
_symmetry_Int_Tables_number       1 
_symmetry_cell_setting            triclinic 
loop_ 
_symmetry_equiv_pos_as_xyz 
  x,y,z 
_cell_length_a                    45.12996609 
_cell_length_b                    48.25734530326663 
_cell_length_c                    44.54573990855065 
_cell_angle_alpha                 89.69626489586359 
_cell_angle_beta                  88.71250155046054 
_cell_angle_gamma                 90.54023490373001 
loop_ 
_atom_site_label 
_atom_site_type_symbol 
_atom_site_fract_x 
_atom_site_fract_y 
_atom_site_fract_z 
_atom_site_charge 
C1          C  0.43470676  0.43786618  0.06596517     0.41600
N2          N  0.46340087  0.47241495  0.05406112     0.00500
C3          C  0.46368234  0.05530374  0.42702998    -0.07400
H4          H  0.47606821  0.45255417  0.40327997     0.06000
C5          C  0.07077586  0.45177292  0.46391445    -0.07700
Co6        Co  0.44382143  0.50248387  0.49859355     0.74200
N7          N  0.46756924  0.47399290  0.44419860    -0.26900
Co8        Co  0.00025988  0.50350329  0.44476980     0.74100
C9          C  0.06046529  0.43806478  0.43698591     0.41700
N10         N  0.04997017  0.47309728  0.03397473     0.00100
N11         N  0.03294044  0.47309946  0.44619146     0.00200
N12         N  0.42628103  0.05238442  0.46165085    -0.47800
H13         H  0.40559423  0.44588828  0.02482577     0.06000
N14         N  0.44633095  0.47262457  0.46492332     0.00500
N15         N  0.03419501  0.03370269  0.44567131     0.00200
C16         C  0.06605295  0.06491843  0.43248424     0.41800
N17         N  0.02892073  0.47320664  0.05496475    -0.26400
C18         C  0.42344918  0.05314913  0.03776392    -0.07300
N19         N  0.45869028  0.45265430  0.07441188    -0.47500
N20         N  0.04063577  0.05228510  0.42442940    -0.47700
C21         C  0.43390858  0.06643174  0.06495221     0.41600
N22         N  0.44602419  0.03267187  0.46561544     0.00500
N23         N  0.02904138  0.03393050  0.05406572    -0.26400
N24         N  0.44368083  0.47193634  0.03265092    -0.26900
N25         N  0.05034822  0.03347376  0.03332408     0.00100
H26         H  0.02001235  0.06157266  0.09105729     0.06000
H27         H  0.09472648  0.05582672  0.47341676     0.06000
N28         N  0.46795040  0.03373452  0.44548006    -0.26900
N29         N  0.05225621  0.47304612  0.46798985    -0.26600
N30         N  0.46280074  0.03304491  0.05358110     0.00500
C31         C  0.43593811  0.44000426  0.43392990     0.41900
C32         C  0.03419762  0.45283626  0.07471626    -0.07800
N33         N  0.05402945  0.03317295  0.46692612    -0.26600
H34         H  0.08941024  0.44684107  0.47775328     0.06000
N35         N  0.42679986  0.45274274  0.45951378    -0.47800
H36         H  0.02127292  0.44843262  0.09493986     0.06000
C37         C  0.06069033  0.06944542  0.05952137     0.41700
C38         C  0.42466646  0.45082216  0.03812389    -0.07300
Co39       Co  0.49564792  0.00321459  0.05490286     0.73800
N40         N  0.06991722  0.45372617  0.03836328    -0.47500
C41         C  0.43622798  0.06777544  0.43809364     0.42000
N42         N  0.45793106  0.05251860  0.07386376    -0.47500
Co43       Co  0.05211859  0.00303374  0.00060347     0.73900
C44         C  0.07492844  0.05235238  0.46071281    -0.07800
C45         C  0.46278572  0.45464200  0.42352495    -0.07400
N46         N  0.44282034  0.03272613  0.03239220    -0.26900
N47         N  0.03742279  0.45277523  0.42674273    -0.47700
H48         H  0.47750184  0.06092811  0.40775438     0.06000
C49         C  0.03364931  0.05597464  0.07180483    -0.07800
Cl50       Cl  0.99806218  0.00307523  0.99994233    -0.50800
C51         C  0.06162661  0.44010686  0.06369649     0.41700
H52         H  0.40403439  0.05754978  0.02483625     0.05900
N53         N  0.06966679  0.05397353  0.03600353    -0.47500
C54         C  0.13661389  0.14287401  0.35845762     0.85600
C55         C  0.17012202  0.14196928  0.36484775    -0.54600
C56         C  0.18757807  0.15803942  0.34624778     0.08500
C57         C  0.16946023  0.17568307  0.32436083     0.24100
C58         C  0.12973459  0.17386086  0.36233758    -0.55300
C59         C  0.14656728  0.19104568  0.34430966     0.08600
C60         C  0.13439483  0.13717869  0.32464753    -0.54900
C61         C  0.15132998  0.15436634  0.30676695     0.09200
H62         H  0.17938434  0.13101441  0.38367063     0.13700
H63         H  0.18299856  0.18966291  0.30957947    -0.00500
H64         H  0.11398615  0.18176787  0.37885995     0.14000
H65         H  0.11976768  0.12143502  0.31565083     0.13800
C66         C  0.13024964  0.35852287  0.36666193     0.85600
C67         C  0.12477428  0.36256609  0.33298011    -0.54600
C68         C  0.14215196  0.34680120  0.31449145     0.08500
C69         C  0.16313984  0.32757498  0.33146474     0.19500
C70         C  0.12559033  0.32681721  0.37160852    -0.55300
C71         C  0.14304375  0.31082740  0.35322191     0.08600
C72         C  0.16387152  0.36263696  0.37021370    -0.54900
C73         C  0.18123669  0.34697635  0.35147036     0.09200
H74         H  0.10821783  0.37662575  0.32455124     0.13700
H75         H  0.17676104  0.31398365  0.31680237    -0.00500
H76         H  0.11058476  0.31729144  0.38796024     0.14000
H77         H  0.17309179  0.37702109  0.38625967     0.13800
C78         C  0.13328207  0.36268181  0.13276613     0.85600
C79         C  0.16721610  0.36811128  0.13220914    -0.54600
C80         C  0.18271524  0.35068830  0.14997916     0.08500
C81         C  0.16318973  0.32944794  0.16708229     0.19500
C82         C  0.13041844  0.33186045  0.12451371    -0.55300
C83         C  0.14566645  0.31433566  0.14267989     0.08600
C84         C  0.12483483  0.36428387  0.16649589    -0.54900
C85         C  0.14005276  0.34652362  0.18438915     0.09200
H86         H  0.17890632  0.38416088  0.11964189     0.13700
H87         H  0.17615295  0.31570134  0.18176507    -0.00500
H88         H  0.11798700  0.32480419  0.10539853     0.14000
H89         H  0.10845802  0.37854732  0.17547338     0.13800
C90         C  0.13486519  0.14653216  0.12536026     0.85600
C91         C  0.12882316  0.14227682  0.15929092    -0.54600
C92         C  0.14649789  0.15791141  0.17706025     0.08500
C93         C  0.16958919  0.17550862  0.15959285     0.19500
C94         C  0.13367149  0.17806278  0.12006276    -0.55300
C95         C  0.15182464  0.19361689  0.13796924     0.08600
C96         C  0.16802461  0.13938513  0.12178288    -0.54900
C97         C  0.18601523  0.15487405  0.13920826     0.09200
H98         H  0.11236484  0.12787127  0.16855180     0.13700
H99         H  0.18406401  0.18661215  0.17521699    -0.00500
H100        H  0.11955111  0.18708036  0.10327749     0.14000
H101        H  0.17701789  0.12321004  0.10757633     0.13800
C102        C  0.36467246  0.14749279  0.37312755     0.85600
C103        C  0.36969017  0.14308897  0.33928217    -0.54600
C104        C  0.35566108  0.16170858  0.32162211     0.08500
C105        C  0.33769522  0.18315592  0.33927551     0.19500
C106        C  0.37342980  0.17783131  0.37890417    -0.55300
C107        C  0.35962648  0.19629196  0.36104830     0.08600
C108        C  0.33059508  0.14807581  0.37794960    -0.54900
C109        C  0.31606394  0.16606679  0.35935467     0.09200
H110        H  0.38231561  0.12591020  0.33014716     0.13700
H111        H  0.32744964  0.19827390  0.32409713    -0.00500
H112        H  0.38748140  0.18450457  0.39702322     0.14000
H113        H  0.31885553  0.13558551  0.39470150     0.13800
C114        C  0.36391947  0.14110829  0.14052488     0.85600
C115        C  0.33128532  0.13582801  0.13365414    -0.54600
C116        C  0.31205180  0.15108455  0.15032303     0.08500
C117        C  0.32694544  0.17113368  0.17224669     0.19500
C118        C  0.36813596  0.17284565  0.13624608    -0.55300
C119        C  0.34887537  0.18856134  0.15288114     0.08600
C120        C  0.36622930  0.13722678  0.17478716    -0.54900
C121        C  0.34674980  0.15266883  0.19175871     0.09200
H122        H  0.32393301  0.12124861  0.11680002     0.13700
H123        H  0.31089334  0.18420862  0.18461143    -0.00500
H124        H  0.38527066  0.18273756  0.12254795     0.14000
H125        H  0.38236475  0.12357181  0.18464770     0.13800
C126        C  0.36315516  0.35792424  0.13820006     0.85600
C127        C  0.36582675  0.36104513  0.17270178    -0.54600
C128        C  0.34715159  0.34432063  0.18921501     0.08500
C129        C  0.32711222  0.32594364  0.17002365     0.19500
C130        C  0.36734779  0.32662891  0.13271143    -0.55300
C131        C  0.34815018  0.30972329  0.14884159     0.08600
C132        C  0.32988784  0.36319750  0.13317914    -0.54900
C133        C  0.31111004  0.34618419  0.14943703     0.09200
H134        H  0.38004670  0.37568697  0.18389525     0.13700
H135        H  0.31147971  0.31278668  0.18354712    -0.00500
H136        H  0.38465020  0.31875007  0.11788077     0.14000
H137        H  0.32186615  0.37942193  0.11856144     0.13800
C138        C  0.35942904  0.36271072  0.36961418     0.85600
C139        C  0.32560983  0.36635661  0.37260822    -0.54600
C140        C  0.30958074  0.34656516  0.35812896     0.08500
C141        C  0.32876103  0.32581882  0.34041983     0.19500
C142        C  0.36543215  0.33271751  0.37889750    -0.55300
C143        C  0.34934661  0.31357454  0.36391234     0.08600
C144        C  0.36468260  0.36340816  0.33509945    -0.54900
C145        C  0.34879152  0.34399368  0.31979837     0.09200
H146        H  0.31506325  0.38376844  0.38360527     0.13700
H147        H  0.31584668  0.30998856  0.32811022    -0.00500
H148        H  0.38151184  0.32705941  0.39560380     0.14000
H149        H  0.37869823  0.37865434  0.32354940     0.13800
C150        C  0.34612204  0.34447427  0.22266273    -0.07000
C151        C  0.35558721  0.32084901  0.23799208    -0.18100
C152        C  0.35595588  0.31978797  0.26949059     0.10200
C153        C  0.34797840  0.34338560  0.28631935    -0.06900
C154        C  0.33903688  0.36727619  0.27095606    -0.18200
C155        C  0.33763273  0.36798251  0.23950664     0.10200
S156        S  0.36838249  0.28866371  0.28749033    -0.33100
S157        S  0.32505347  0.39963646  0.22249184    -0.33100
H158        H  0.31394597  0.38771933  0.19635083     0.28200
H159        H  0.36862169  0.27171102  0.26188938     0.28200
H160        H  0.36402269  0.30361721  0.22527287     0.18800
H161        H  0.33262780  0.38544852  0.28364556     0.18800
C162        C  0.34929988  0.21958645  0.15198334    -0.07000
C163        C  0.35324667  0.23330721  0.12422594    -0.18100
C164        C  0.35310867  0.26237878  0.12194418     0.10200
C165        C  0.34826038  0.27859483  0.14813272    -0.06900
C166        C  0.34360810  0.26459638  0.17556092    -0.18200
C167        C  0.34535265  0.23585125  0.17798861     0.10200
S168        S  0.35810910  0.27654034  0.08462960    -0.33100
S169        S  0.34611101  0.22203263  0.21547270    -0.33100
H170        H  0.37137172  0.20609889  0.20901501     0.28200
H171        H  0.34051701  0.29980949  0.08932060     0.28200
H172        H  0.35603736  0.22125032  0.10392495     0.18800
H173        H  0.33982428  0.27605838  0.19587266     0.18800
C174        C  0.35437173  0.15956735  0.28847366    -0.07000
C175        C  0.32646806  0.16104682  0.27553095    -0.18100
C176        C  0.32287166  0.15829823  0.24464890     0.10200
C177        C  0.34798636  0.15385238  0.22545857    -0.06900
C178        C  0.37606758  0.15265382  0.23872397    -0.18200
C179        C  0.37956505  0.15574857  0.26968880     0.10200
S180        S  0.28526599  0.15986879  0.23241160    -0.33100
S181        S  0.41691011  0.15626510  0.28330101    -0.33100
H182        H  0.41123176  0.17435828  0.30726722     0.28200
H183        H  0.29002696  0.13933318  0.21127342     0.28200
H184        H  0.30693900  0.16374055  0.28979992     0.18800
H185        H  0.39585345  0.15062800  0.22474459     0.18800
C186        C  0.36069246  0.22615697  0.36666066    -0.07000
C187        C  0.33663700  0.23778238  0.38216839    -0.18100
C188        C  0.33231784  0.26631682  0.38179412     0.10200
C189        C  0.35382254  0.28366130  0.36782714    -0.06900
C190        C  0.37998239  0.27212893  0.35608294    -0.18200
C191        C  0.38328469  0.24342642  0.35456546     0.10200
S192        S  0.29875629  0.27920028  0.39871896    -0.33100
S193        S  0.41546212  0.23019152  0.33502556    -0.33100
H194        H  0.41883435  0.20701478  0.35378058     0.28200
H195        H  0.28830149  0.28944806  0.37140364     0.28200
H196        H  0.32000451  0.22438767  0.39274616     0.18800
H197        H  0.39706406  0.28552233  0.34629327     0.18800
C198        C  0.21838332  0.15170693  0.13864801    -0.07000
C199        C  0.23073343  0.13043582  0.15561723    -0.18100
C200        C  0.26147183  0.12824412  0.15801032     0.10200
C201        C  0.27986375  0.14967784  0.14585613    -0.06900
C202        C  0.26751435  0.16985263  0.12733751    -0.18200
C203        C  0.23715601  0.16983034  0.12197078     0.10200
S204        S  0.27504533  0.09704835  0.17548935    -0.33100
S205        S  0.22415217  0.19198182  0.09232187    -0.33100
H206        H  0.19842264  0.17669193  0.08610905     0.28200
H207        H  0.30486817  0.10473862  0.17787374     0.28200
H208        H  0.21632694  0.11527941  0.16673865     0.18800
H209        H  0.28181237  0.18497423  0.11600951     0.18800
C210        C  0.15173183  0.22484207  0.13785300    -0.07000
C211        C  0.12472761  0.23805749  0.13199232    -0.18100
C212        C  0.12177269  0.26685692  0.13313000     0.10200
C213        C  0.14673115  0.28365074  0.13925730    -0.06900
C214        C  0.17383433  0.27074626  0.14427319    -0.18200
C215        C  0.17661730  0.24188150  0.14468118     0.10200
S216        S  0.08497439  0.28013610  0.12848513    -0.33100
S217        S  0.21268173  0.22870983  0.15354988    -0.33100
H218        H  0.22342348  0.25245443  0.16812391     0.28200
H219        H  0.08708290  0.29986734  0.15137493     0.28200
H220        H  0.10498058  0.22580710  0.12811196     0.18800
H221        H  0.19325807  0.28349031  0.14800235     0.18800
C222        C  0.21562456  0.35097126  0.15034146    -0.07000
C223        C  0.23129414  0.34822452  0.12300315    -0.18100
C224        C  0.26221805  0.34651836  0.12202059     0.10200
C225        C  0.27823326  0.34791599  0.14889028    -0.06900
C226        C  0.26252200  0.35076378  0.17623011    -0.18200
C227        C  0.23158219  0.35281449  0.17712947     0.10200
S228        S  0.27964658  0.34012956  0.08615481    -0.33100
S229        S  0.21386813  0.35953136  0.21278595    -0.33100
H230        H  0.19375875  0.37858693  0.20100085     0.28200
H231        H  0.29680238  0.31874293  0.09780625     0.28200
H232        H  0.21924942  0.34639036  0.10231477     0.18800
H233        H  0.27446653  0.35207025  0.19701248     0.18800
C234        C  0.14038195  0.34746329  0.28118682    -0.07000
C235        C  0.13879426  0.32213878  0.26600212    -0.18100
C236        C  0.13683512  0.32115222  0.23471518     0.10200
C237        C  0.13709414  0.34603602  0.21775672    -0.06900
C238        C  0.13786629  0.37134817  0.23300464    -0.18200
C239        C  0.14002149  0.37240237  0.26423275     0.10200
S240        S  0.13246389  0.28752139  0.21813639    -0.33100
S241        S  0.14457849  0.40633632  0.28019391    -0.33100
H242        H  0.16366971  0.39798849  0.30282838     0.28200
H243        H  0.11293956  0.29678103  0.19626491     0.28200
H244        H  0.13841566  0.30289738  0.27868100     0.18800
H245        H  0.13867895  0.39057495  0.22031972     0.18800
C246        C  0.21432335  0.34747307  0.35243037    -0.07000
C247        C  0.22765517  0.34917988  0.38058682    -0.18100
C248        C  0.25841072  0.34845722  0.38343940     0.10200
C249        C  0.27678549  0.34634016  0.35740299    -0.06900
C250        C  0.26363206  0.34433976  0.32934994    -0.18200
C251        C  0.23290269  0.34523439  0.32651151     0.10200
S252        S  0.27202242  0.34903172  0.42117673    -0.33100
S253        S  0.21952301  0.34554133  0.28890877    -0.33100
H254        H  0.20029987  0.36753614  0.29465275     0.28200
H255        H  0.29842021  0.33491679  0.41512675     0.28200
H256        H  0.21395207  0.35010738  0.40082690     0.18800
H257        H  0.27751374  0.34311317  0.30922896     0.18800
C258        C  0.15020878  0.15430891  0.27342967    -0.07000
C259        C  0.14505287  0.17955471  0.25885178    -0.18100
C260        C  0.14194309  0.18091557  0.22774911     0.10200
C261        C  0.14518210  0.15675615  0.21032214    -0.06900
C262        C  0.15008427  0.13140316  0.22477975    -0.18200
C263        C  0.15283252  0.12994185  0.25601181     0.10200
S264        S  0.13216865  0.21380186  0.21184312    -0.33100
S265        S  0.16206808  0.09688909  0.27188678    -0.33100
H266        H  0.18314550  0.10849696  0.29084218     0.28200
H267        H  0.11324619  0.20240142  0.19038155     0.28200
H268        H  0.14248452  0.19831083  0.27188309     0.18800
H269        H  0.15309619  0.11282918  0.21152242     0.18800
C270        C  0.22061732  0.15923792  0.34822299    -0.07000
C271        C  0.23487249  0.18490718  0.34406091    -0.18100
C272        C  0.26539731  0.18842934  0.34810695     0.10200
C273        C  0.28294977  0.16524481  0.35589185    -0.06900
C274        C  0.26868356  0.13928640  0.35881676    -0.18200
C275        C  0.23822885  0.13588905  0.35489837     0.10200
S276        S  0.28007340  0.22311799  0.34379771    -0.33100
S277        S  0.22444118  0.10066203  0.35701247    -0.33100
H278        H  0.20167394  0.10413466  0.33660226     0.28200
H279        H  0.25310497  0.23742157  0.34627991     0.28200
H280        H  0.22199866  0.20265371  0.33788792     0.18800
H281        H  0.28156049  0.12093190  0.36316607     0.18800
C282        C  0.14473978  0.22172750  0.34623580    -0.07000
C283        C  0.16880999  0.23616906  0.35809228    -0.18100
C284        C  0.16825458  0.26492198  0.36181428     0.10200
C285        C  0.14296413  0.27999367  0.35365231    -0.06900
C286        C  0.11842585  0.26552050  0.34256403    -0.18200
C287        C  0.11913022  0.23664935  0.33847954     0.10200
S288        S  0.20025601  0.28097232  0.37801537    -0.33100
S289        S  0.08704376  0.22038908  0.32242646    -0.33100
H290        H  0.10171615  0.19757081  0.30982248     0.28200
H291        H  0.18400740  0.30082857  0.39428292     0.28200
H292        H  0.18785001  0.22486375  0.36558998     0.18800
H293        H  0.09904727  0.27692813  0.33591672     0.18800
C294        C  0.08381624  0.08366639  0.41273237    -0.07000
C295        C  0.06987776  0.10611435  0.39913120    -0.18100
C296        C  0.08581754  0.12518154  0.38099839     0.10200
C297        C  0.11715716  0.12259945  0.37723388    -0.06900
C298        C  0.13026762  0.09858356  0.38918337    -0.18200
C299        C  0.11421989  0.07942061  0.40674880     0.10200
S300        S  0.06403409  0.15167462  0.36346937    -0.33100
S301        S  0.13373312  0.04911368  0.41913698    -0.33100
H302        H  0.10995958  0.03060896  0.41478596     0.28200
H303        H  0.07895365  0.15105035  0.33555764     0.28200
H304        H  0.04623349  0.10882126  0.40266062     0.18800
H305        H  0.15307651  0.09362613  0.38396274     0.18800
C306        C  0.11426415  0.38151794  0.11293990    -0.07000
C307        C  0.12771269  0.40044692  0.09245317    -0.18100
C308        C  0.11133233  0.41969987  0.07649899     0.10200
C309        C  0.08013102  0.41973524  0.07948795    -0.06900
C310        C  0.06622538  0.39984765  0.09813491    -0.18200
C311        C  0.08270015  0.38057961  0.11448445     0.10200
S312        S  0.13223656  0.44479321  0.05435571    -0.33100
S313        S  0.06267520  0.35512990  0.13716555    -0.33100
H314        H  0.03419072  0.36065745  0.12656537     0.28200
H315        H  0.11763003  0.46762698  0.06725585     0.28200
H316        H  0.15125104  0.40102352  0.08839351     0.18800
H317        H  0.04226424  0.39944765  0.09991462     0.18800
C318        C  0.41748463  0.08584453  0.08418790    -0.07000
C319        C  0.39906225  0.07501223  0.10703639    -0.18100
C320        C  0.38215694  0.09234500  0.12575717     0.10200
C321        C  0.38390882  0.12168635  0.12185225    -0.06900
C322        C  0.40272083  0.13214260  0.09851143    -0.18200
C323        C  0.41949783  0.11465607  0.07999104     0.10200
S324        S  0.35789056  0.07617827  0.15380796    -0.33100
S325        S  0.44242520  0.13041038  0.05075122    -0.33100
H326        H  0.46444186  0.11000106  0.05012216     0.28200
H327        H  0.36481069  0.04843143  0.14750313     0.28200
H328        H  0.39766693  0.05273081  0.10984322     0.18800
H329        H  0.40433363  0.15392604  0.09352803     0.18800
C330        C  0.11377751  0.13015888  0.10525291    -0.07000
C331        C  0.12482873  0.11726474  0.07909211    -0.18100
C332        C  0.10733365  0.09945428  0.06222933     0.10200
C333        C  0.07808427  0.09286288  0.07223753    -0.06900
C334        C  0.06573601  0.10852365  0.09580629    -0.18200
C335        C  0.08278564  0.12816248  0.11126526     0.10200
S336        S  0.12389469  0.08669727  0.02787803    -0.33100
S337        S  0.06432755  0.15093976  0.13766588    -0.33100
H338        H  0.03515931  0.14432550  0.12956695     0.28200
H339        H  0.09946220  0.09428064  0.01062825     0.28200
H340        H  0.14705759  0.12158970  0.07077501     0.18800
H341        H  0.04266774  0.10544997  0.10218667     0.18800
C342        C  0.37880276  0.38281180  0.38731671    -0.07000
C343        C  0.40824800  0.38714966  0.37710230    -0.18100
C344        C  0.42806685  0.40404872  0.39246700     0.10200
C345        C  0.41810012  0.41868828  0.41820895    -0.06900
C346        C  0.38953981  0.41283096  0.42971438    -0.18200
C347        C  0.37070326  0.39395718  0.41583655     0.10200
S348        S  0.46599625  0.40343279  0.37910780    -0.33100
S349        S  0.33896154  0.38304529  0.43819066    -0.33100
H350        H  0.34367138  0.35476161  0.43276292     0.28200
H351        H  0.47765192  0.40138206  0.40807379     0.28200
H352        H  0.41657190  0.37615205  0.35759839     0.18800
H353        H  0.38207848  0.42217121  0.45058290     0.18800
C354        C  0.38222033  0.12632862  0.39122687    -0.07000
C355        C  0.41219844  0.13258219  0.39727638    -0.18100
C356        C  0.43015421  0.11427626  0.41288944     0.10200
C357        C  0.41834235  0.08863691  0.42274178    -0.06900
C358        C  0.38917006  0.08155781  0.41573976    -0.18200
C359        C  0.37162022  0.09923470  0.39878628     0.10200
S360        S  0.46791874  0.12495814  0.41932460    -0.33100
S361        S  0.33779000  0.08403737  0.38527815    -0.33100
H362        H  0.34037375  0.09566307  0.35636190     0.28200
H363        H  0.47054619  0.11108692  0.44695295     0.28200
H364        H  0.42226272  0.15174234  0.38925935     0.18800
H365        H  0.38063013  0.06116539  0.42181500     0.18800
C366        C  0.11198859  0.37911763  0.38587344    -0.07000
C367        C  0.09016124  0.36992806  0.40704254    -0.18100
C368        C  0.07266261  0.38863628  0.42355095     0.10200
C369        C  0.07685518  0.41732361  0.41930072    -0.06900
C370        C  0.09848388  0.42679909  0.39883916    -0.18200
C371        C  0.11607009  0.40835499  0.38222394     0.10200
S372        S  0.04563182  0.37465112  0.45012135    -0.33100
S373        S  0.14412835  0.42317584  0.35718657    -0.33100
H374        H  0.13498923  0.45092191  0.35873208     0.28200
H375        H  0.02524202  0.39636739  0.44785964     0.28200
H376        H  0.08600202  0.34820160  0.41096101     0.18800
H377        H  0.10187513  0.44894364  0.39628936     0.18800
C378        C  0.41958886  0.41524450  0.08390452    -0.07000
C379        C  0.39741089  0.39924692  0.07043617    -0.18100
C380        C  0.38036254  0.37949086  0.08683181     0.10200
C381        C  0.38406569  0.37645039  0.11833579    -0.06900
C382        C  0.40814454  0.39083291  0.13093930    -0.18200
C383        C  0.42584465  0.40965374  0.11431771     0.10200
S384        S  0.35421878  0.35838560  0.06672008    -0.33100
S385        S  0.45586361  0.42585080  0.13385193    -0.33100
H386        H  0.47739668  0.41671600  0.11289285     0.28200
H387        H  0.36320744  0.36644014  0.03748996     0.28200
H388        H  0.39329617  0.40222269  0.04682514     0.18800
H389        H  0.41434952  0.38717878  0.15379652     0.18800
C390        C  0.43387438  0.43808705  0.56560852     0.41600
N391        N  0.46271605  0.47248259  0.55373025     0.00500
C392        C  0.46314477  0.05495581  0.92667161    -0.07400
H393        H  0.47597808  0.45160884  0.90389872     0.06000
C394        C  0.07108060  0.45148270  0.96316760    -0.07700
Co395      Co  0.44422487  0.50230258  0.99890670     0.74200
N396        N  0.46776074  0.47353972  0.94464186    -0.26900
Co397      Co  0.00068292  0.50366433  0.94478614     0.74100
C398        C  0.06057251  0.43796591  0.93621664     0.41700
N399        N  0.04944328  0.47373091  0.53444043     0.00100
N400        N  0.03313483  0.47297314  0.94589123     0.00200
N401        N  0.42589350  0.05245404  0.96152403    -0.47800
H402        H  0.40487555  0.44614784  0.52437845     0.06000
N403        N  0.44665643  0.47228008  0.96551928     0.00500
N404        N  0.03381988  0.03362794  0.94563944     0.00200
C405        C  0.06568182  0.06478506  0.93234344     0.41800
N406        N  0.02833349  0.47379426  0.55536128    -0.26400
C407        C  0.42296595  0.05223196  0.53719981    -0.07300
N408        N  0.45786641  0.45279321  0.57410503    -0.47500
N409        N  0.04021875  0.05220142  0.92438202    -0.47700
C410        C  0.43316987  0.06600558  0.56413136     0.41600
N411        N  0.44572784  0.03288091  0.96570340     0.00500
N412        N  0.02893364  0.03450393  0.55393899    -0.26400
N413        N  0.44308732  0.47202813  0.53222963    -0.26900
N414        N  0.05037054  0.03400836  0.53333344     0.00100
H415        H  0.01952393  0.06226019  0.59068891     0.06000
H416        H  0.09449561  0.05558971  0.97315939     0.06000
N417        N  0.46755515  0.03367544  0.94544489    -0.26900
N418        N  0.05259811  0.47273213  0.96755076    -0.26600
N419        N  0.46268800  0.03297654  0.55334682     0.00500
C420        C  0.43621250  0.43928012  0.93508834     0.41900
C421        C  0.03376499  0.45365301  0.57533958    -0.07800
N422        N  0.05372074  0.03302624  0.96682964    -0.26600
H423        H  0.08984223  0.44647235  0.97680174     0.06000
N424        N  0.42717882  0.45225003  0.96054142    -0.47800
H425        H  0.02081685  0.44929837  0.59555971     0.06000
C426        C  0.06034158  0.07018012  0.55935189     0.41700
C427        C  0.42396207  0.45100078  0.53768964    -0.07300
Co428      Co  0.49585981  0.00342188  0.55497157     0.73800
N429        N  0.06956738  0.45457239  0.53907242    -0.47500
C430        C  0.43570844  0.06748726  0.93767639     0.42000
N431        N  0.45744969  0.05263380  0.57334031    -0.47500
Co432      Co  0.05235630  0.00336205  0.50081961     0.73900
C433        C  0.07462861  0.05218244  0.96054773    -0.07800
C434        C  0.46288568  0.45394580  0.92424789    -0.07400
N435        N  0.44274959  0.03215599  0.53213635    -0.26900
N436        N  0.03746409  0.45276794  0.92625190    -0.47700
H437        H  0.47678356  0.06026948  0.90716720     0.06000
C438        C  0.03330909  0.05665324  0.57155037    -0.07800
Cl439      Cl  0.99831882  0.00325099  0.49995945    -0.50800
C440        C  0.06134831  0.44109075  0.56452211     0.41700
H441        H  0.40355828  0.05621587  0.52410338     0.05900
N442        N  0.06958599  0.05460603  0.53600350    -0.47500
C443        C  0.13642978  0.14279199  0.85858573     0.85600
C444        C  0.16994648  0.14169205  0.86501616    -0.54600
C445        C  0.18751707  0.15779595  0.84655986     0.08500
C446        C  0.16952584  0.17556939  0.82470751     0.24100
C447        C  0.12970468  0.17380840  0.86259704    -0.55300
C448        C  0.14670338  0.19096888  0.84467026     0.08600
C449        C  0.13421366  0.13727220  0.82476384    -0.54900
C450        C  0.15130721  0.15441452  0.80700917     0.09200
H451        H  0.17911702  0.13068663  0.88384979     0.13700
H452        H  0.18315508  0.18953268  0.80999270    -0.00500
H453        H  0.11386227  0.18172541  0.87902110     0.14000
H454        H  0.11949975  0.12165375  0.81566037     0.13800
C455        C  0.13055776  0.35855541  0.86598378     0.85600
C456        C  0.12531116  0.36269126  0.83231485    -0.54600
C457        C  0.14276231  0.34694461  0.81391715     0.08500
C458        C  0.16362255  0.32763127  0.83094327     0.19500
C459        C  0.12582031  0.32683594  0.87081654    -0.55300
C460        C  0.14336055  0.31085690  0.85250608     0.08600
C461        C  0.16415042  0.36260313  0.86980636    -0.54900
C462        C  0.18160900  0.34694690  0.85115081     0.09200
H463        H  0.10877502  0.37674125  0.82382247     0.13700
H464        H  0.17731585  0.31406179  0.81632175    -0.00500
H465        H  0.11074927  0.31728421  0.88708781     0.14000
H466        H  0.17328085  0.37692105  0.88597058     0.13800
C467        C  0.13305014  0.36298825  0.63260845     0.85600
C468        C  0.16698345  0.36845649  0.63210620    -0.54600
C469        C  0.18246447  0.35095071  0.64979500     0.08500
C470        C  0.16297742  0.32958307  0.66668734     0.19500
C471        C  0.13019883  0.33220614  0.62412932    -0.55300
C472        C  0.14548608  0.31459464  0.64217648     0.08600
C473        C  0.12459829  0.36437912  0.66632248    -0.54900
C474        C  0.13983549  0.34653752  0.68406782     0.09200
H475        H  0.17866806  0.38459764  0.61966699     0.13700
H476        H  0.17596250  0.31579477  0.68130585    -0.00500
H477        H  0.11770816  0.32523799  0.60501645     0.14000
H478        H  0.10825977  0.37862069  0.67541843     0.13800
C479        C  0.13450999  0.14676247  0.62570250     0.85600
C480        C  0.12885770  0.14229133  0.65966550    -0.54600
C481        C  0.14664806  0.15792527  0.67732049     0.08500
C482        C  0.16948110  0.17568200  0.65970241     0.19500
C483        C  0.13310768  0.17829986  0.62062948    -0.55300
C484        C  0.15140424  0.19384238  0.63839204     0.08600
C485        C  0.16765459  0.13976136  0.62168060    -0.54900
C486        C  0.18578274  0.15523641  0.63898337     0.09200
H487        H  0.11254357  0.12779887  0.66902767     0.13700
H488        H  0.18406664  0.18669905  0.67527250    -0.00500
H489        H  0.11881249  0.18732144  0.60400256     0.14000
H490        H  0.17650754  0.12369506  0.60722809     0.13800
C491        C  0.36465348  0.14707040  0.87224278     0.85600
C492        C  0.36919736  0.14245911  0.83838711    -0.54600
C493        C  0.35526341  0.16121052  0.82080358     0.08500
C494        C  0.33766005  0.18286493  0.83857394     0.19500
C495        C  0.37385736  0.17736901  0.87772464    -0.55300
C496        C  0.36004201  0.19591491  0.85996097     0.08600
C497        C  0.33069248  0.14800901  0.87752604    -0.54900
C498        C  0.31610380  0.16598954  0.85901701     0.09200
H499        H  0.38154761  0.12512931  0.82920442     0.13700
H500        H  0.32732346  0.19803814  0.82351386    -0.00500
H501        H  0.38818930  0.18397876  0.89564137     0.14000
H502        H  0.31904043  0.13572116  0.89451178     0.13800
C503        C  0.36384351  0.14112158  0.63966101     0.85600
C504        C  0.33117327  0.13639163  0.63243639    -0.54600
C505        C  0.31201189  0.15160002  0.64924025     0.08500
C506        C  0.32707625  0.17134305  0.67142388     0.19500
C507        C  0.36848233  0.17286208  0.63566157    -0.55300
C508        C  0.34935832  0.18869091  0.65234515     0.08600
C509        C  0.36576662  0.13682246  0.67389287    -0.54900
C510        C  0.34650190  0.15248434  0.69088993     0.09200
H511        H  0.32372496  0.12205633  0.61538588     0.13700
H512        H  0.31114679  0.18450878  0.68383477    -0.00500
H513        H  0.38547040  0.18269762  0.62175491     0.14000
H514        H  0.38150086  0.12272306  0.68370458     0.13800
C515        C  0.36255924  0.35833340  0.63811289     0.85600
C516        C  0.36548730  0.36129279  0.67259876    -0.54600
C517        C  0.34692213  0.34452086  0.68918429     0.08500
C518        C  0.32682347  0.32613160  0.66998593     0.19500
C519        C  0.36678487  0.32708917  0.63236935    -0.55300
C520        C  0.34778380  0.31001836  0.64852839     0.08600
C521        C  0.32928143  0.36360715  0.63337344    -0.54900
C522        C  0.31068131  0.34646351  0.64961212     0.09200
H523        H  0.37973789  0.37594256  0.68374156     0.13700
H524        H  0.31125085  0.31292000  0.68351219    -0.00500
H525        H  0.38406498  0.31937892  0.61741033     0.14000
H526        H  0.32109875  0.37987762  0.61890750     0.13800
C527        C  0.35967076  0.36249702  0.87017276     0.85600
C528        C  0.32583427  0.36598657  0.87312969    -0.54600
C529        C  0.30990499  0.34626583  0.85846242     0.08500
C530        C  0.32919965  0.32578131  0.84050652     0.19500
C531        C  0.36579656  0.33241796  0.87909754    -0.55300
C532        C  0.34987598  0.31334936  0.86383353     0.08600
C533        C  0.36497305  0.36356474  0.83563512    -0.54900
C534        C  0.34910421  0.34427309  0.82003535     0.09200
H535        H  0.31516511  0.38338413  0.88400665     0.13700
H536        H  0.31631714  0.31002190  0.82806549    -0.00500
H537        H  0.38185605  0.32665557  0.89578176     0.14000
H538        H  0.37911855  0.37888662  0.82436747     0.13800
C539        C  0.34597855  0.34479798  0.72269241    -0.07000
C540        C  0.35475128  0.32097457  0.73807195    -0.18100
C541        C  0.35528782  0.31995333  0.76957190     0.10200
C542        C  0.34829863  0.34380961  0.78645275    -0.06900
C543        C  0.34007316  0.36793519  0.77102348    -0.18200
C544        C  0.33840085  0.36858867  0.73954506     0.10200
S545        S  0.36658903  0.28839931  0.78748330    -0.33100
S546        S  0.32654011  0.40048890  0.72248960    -0.33100
H547        H  0.31481562  0.38871146  0.69654149     0.28200
H548        H  0.36793053  0.27180250  0.76163361     0.28200
H549        H  0.36253406  0.30349929  0.72537030     0.18800
H550        H  0.33433054  0.38631427  0.78367965     0.18800
C551        C  0.34996492  0.21976412  0.65151214    -0.07000
C552        C  0.35407653  0.23357179  0.62381601    -0.18100
C553        C  0.35359872  0.26266191  0.62154897     0.10200
C554        C  0.34820705  0.27883782  0.64770119    -0.06900
C555        C  0.34355330  0.26472580  0.67507099    -0.18200
C556        C  0.34575759  0.23599480  0.67750187     0.10200
S557        S  0.35882970  0.27682398  0.58424962    -0.33100
S558        S  0.34669036  0.22217315  0.71499197    -0.33100
H559        H  0.37157603  0.20578638  0.70837762     0.28200
H560        H  0.34075259  0.29983194  0.58861022     0.28200
H561        H  0.35716509  0.22156804  0.60352205     0.18800
H562        H  0.33939128  0.27608550  0.69535433     0.18800
C563        C  0.35402938  0.15922497  0.78763823    -0.07000
C564        C  0.32621938  0.16129288  0.77462863    -0.18100
C565        C  0.32261100  0.15848955  0.74376016     0.10200
C566        C  0.34765926  0.15356002  0.72460759    -0.06900
C567        C  0.37566887  0.15182223  0.73793901    -0.18200
C568        C  0.37916262  0.15484750  0.76891106     0.10200
S569        S  0.28500875  0.16047614  0.73159637    -0.33100
S570        S  0.41646920  0.15450528  0.78260752    -0.33100
H571        H  0.41123717  0.17301968  0.80629223     0.28200
H572        H  0.28976345  0.14079876  0.70958800     0.28200
H573        H  0.30673153  0.16437904  0.78885483     0.18800
H574        H  0.39543067  0.14938170  0.72401291     0.18800
C575        C  0.36129814  0.22580349  0.86563152    -0.07000
C576        C  0.33753879  0.23736373  0.88166573    -0.18100
C577        C  0.33324744  0.26590734  0.88165241     0.10200
C578        C  0.35448467  0.28336915  0.86743067    -0.06900
C579        C  0.38045930  0.27188787  0.85515153    -0.18200
C580        C  0.38371071  0.24316666  0.85327383     0.10200
S581        S  0.30006857  0.27865176  0.89947432    -0.33100
S582        S  0.41553089  0.23012439  0.83292762    -0.33100
H583        H  0.41846003  0.20598060  0.85027355     0.28200
H584        H  0.28938944  0.28983339  0.87269463     0.28200
H585        H  0.32107161  0.22391515  0.89243067     0.18800
H586        H  0.39737571  0.28535091  0.84517643     0.18800
C587        C  0.21816211  0.15213754  0.63810607    -0.07000
C588        C  0.23061221  0.13095835  0.65510125    -0.18100
C589        C  0.26135291  0.12879390  0.65739704     0.10200
C590        C  0.27974638  0.15012003  0.64493140    -0.06900
C591        C  0.26728288  0.17014239  0.62629979    -0.18200
C592        C  0.23684844  0.17022373  0.62124448     0.10200
S593        S  0.27481864  0.09782644  0.67542141    -0.33100
S594        S  0.22368392  0.19268876  0.59193020    -0.33100
H595        H  0.19680282  0.17877925  0.58703010     0.28200
H596        H  0.30473171  0.10535144  0.67708542     0.28200
H597        H  0.21625482  0.11588295  0.66642529     0.18800
H598        H  0.28152787  0.18518668  0.61478337     0.18800
C599        C  0.15136686  0.22507992  0.63815170    -0.07000
C600        C  0.12434898  0.23829194  0.63230639    -0.18100
C601        C  0.12149535  0.26710946  0.63296642     0.10200
C602        C  0.14653629  0.28391249  0.63869433    -0.06900
C603        C  0.17366842  0.27101884  0.64362542    -0.18200
C604        C  0.17642807  0.24213671  0.64437295     0.10200
S605        S  0.08472138  0.28043526  0.62829745    -0.33100
S606        S  0.21234036  0.22880381  0.65380235    -0.33100
H607        H  0.22813468  0.25401499  0.65505891     0.28200
H608        H  0.08688128  0.30015369  0.65119593     0.28200
H609        H  0.10452488  0.22604693  0.62878353     0.18800
H610        H  0.19298106  0.28385622  0.64741837     0.18800
C611        C  0.21533387  0.35125250  0.65027468    -0.07000
C612        C  0.23101261  0.34784971  0.62305349    -0.18100
C613        C  0.26190446  0.34594118  0.62221370     0.10200
C614        C  0.27786136  0.34811204  0.64904386    -0.06900
C615        C  0.26217585  0.35163779  0.67626355    -0.18200
C616        C  0.23123591  0.35355702  0.67707365     0.10200
S617        S  0.27937385  0.33805360  0.58674133    -0.33100
S618        S  0.21344822  0.36040014  0.71265246    -0.33100
H619        H  0.19329006  0.37928434  0.70065997     0.28200
H620        H  0.29653859  0.31718238  0.59945978     0.28200
H621        H  0.21898558  0.34552079  0.60241018     0.18800
H622        H  0.27413581  0.35343141  0.69699870     0.18800
C623        C  0.14095051  0.34757234  0.78067062    -0.07000
C624        C  0.13924268  0.32221982  0.76556900    -0.18100
C625        C  0.13701420  0.32119141  0.73433254     0.10200
C626        C  0.13709292  0.34606442  0.71738519    -0.06900
C627        C  0.13798853  0.37140518  0.73255713    -0.18200
C628        C  0.14041402  0.37250433  0.76372768     0.10200
S629        S  0.13255901  0.28753421  0.71782747    -0.33100
S630        S  0.14496026  0.40648465  0.77960672    -0.33100
H631        H  0.16402382  0.39821637  0.80229521     0.28200
H632        H  0.11304303  0.29675181  0.69592989     0.28200
H633        H  0.13894616  0.30299742  0.77827901     0.18800
H634        H  0.13868625  0.39061761  0.71984337     0.18800
C635        C  0.21467505  0.34737286  0.85233433    -0.07000
C636        C  0.22786479  0.34903710  0.88056422    -0.18100
C637        C  0.25860551  0.34825675  0.88356524     0.10200
C638        C  0.27710033  0.34604130  0.85761292    -0.06900
C639        C  0.26406473  0.34407643  0.82949796    -0.18200
C640        C  0.23336531  0.34514473  0.82650692     0.10200
S641        S  0.27203856  0.34891363  0.92136763    -0.33100
S642        S  0.22017455  0.34589370  0.78883289    -0.33100
H643        H  0.20092114  0.36783427  0.79476804     0.28200
H644        H  0.29832649  0.33456596  0.91548579     0.28200
H645        H  0.21406395  0.35001317  0.90073476     0.18800
H646        H  0.27802293  0.34284550  0.80943288     0.18800
C647        C  0.15035146  0.15438486  0.77369273    -0.07000
C648        C  0.14550096  0.17966615  0.75909200    -0.18100
C649        C  0.14248778  0.18103072  0.72799085     0.10200
C650        C  0.14551058  0.15682163  0.71058893    -0.06900
C651        C  0.15021831  0.13144585  0.72508082    -0.18200
C652        C  0.15284958  0.12999042  0.75632180     0.10200
S653        S  0.13309347  0.21401364  0.71208959    -0.33100
S654        S  0.16168911  0.09688318  0.77232227    -0.33100
H655        H  0.18283145  0.10833139  0.79132467     0.28200
H656        H  0.11382094  0.20278752  0.69084681     0.28200
H657        H  0.14307591  0.19845197  0.77210015     0.18800
H658        H  0.15310071  0.11283494  0.71185733     0.18800
C659        C  0.22055005  0.15907010  0.84871203    -0.07000
C660        C  0.23474634  0.18479631  0.84463483    -0.18100
C661        C  0.26532452  0.18833171  0.84838017     0.10200
C662        C  0.28294935  0.16515091  0.85591845    -0.06900
C663        C  0.26870742  0.13918601  0.85902485    -0.18200
C664        C  0.23822613  0.13574881  0.85532743     0.10200
S665        S  0.28008291  0.22299409  0.84402833    -0.33100
S666        S  0.22449314  0.10051202  0.85762224    -0.33100
H667        H  0.20194264  0.10384624  0.83693349     0.28200
H668        H  0.25310181  0.23734893  0.84565540     0.28200
H669        H  0.22177961  0.20256346  0.83872271     0.18800
H670        H  0.28162675  0.12084085  0.86328922     0.18800
C671        C  0.14492013  0.22165829  0.84638707    -0.07000
C672        C  0.16875946  0.23612996  0.85867718    -0.18100
C673        C  0.16823099  0.26493151  0.86206532     0.10200
C674        C  0.14327510  0.28001868  0.85297434    -0.06900
C675        C  0.11902128  0.26553269  0.84131043    -0.18200
C676        C  0.11963446  0.23660265  0.83771077     0.10200
S677        S  0.19976165  0.28103682  0.87910120    -0.33100
S678        S  0.08777464  0.22028244  0.82126594    -0.33100
H679        H  0.10231926  0.19693665  0.80974656     0.28200
H680        H  0.18313521  0.30107659  0.89468969     0.28200
H681        H  0.18756283  0.22481792  0.86676483     0.18800
H682        H  0.09989901  0.27695135  0.83398693     0.18800
C683        C  0.08341626  0.08348323  0.91250277    -0.07000
C684        C  0.06947766  0.10587259  0.89876113    -0.18100
C685        C  0.08548640  0.12499884  0.88074067     0.10200
C686        C  0.11685051  0.12246667  0.87716686    -0.06900
C687        C  0.12991017  0.09842864  0.88910423    -0.18200
C688        C  0.11383825  0.07927593  0.90663028     0.10200
S689        S  0.06381930  0.15160321  0.86325264    -0.33100
S690        S  0.13338626  0.04904466  0.91915218    -0.33100
H691        H  0.10973408  0.03047833  0.91448631     0.28200
H692        H  0.07873716  0.15097965  0.83534346     0.28200
H693        H  0.04581414  0.10854403  0.90217812     0.18800
H694        H  0.15272203  0.09345074  0.88394178     0.18800
C695        C  0.11400541  0.38200549  0.61305434    -0.07000
C696        C  0.12741822  0.40106206  0.59270146    -0.18100
C697        C  0.11102412  0.42052568  0.57707069     0.10200
C698        C  0.07984546  0.42071346  0.58031969    -0.06900
C699        C  0.06596416  0.40080015  0.59896272    -0.18200
C700        C  0.08244979  0.38120254  0.61483417     0.10200
S701        S  0.13189001  0.44564979  0.55494026    -0.33100
S702        S  0.06244555  0.35539516  0.63704690    -0.33100
H703        H  0.03413533  0.36051045  0.62576726     0.28200
H704        H  0.11733951  0.46846685  0.56794246     0.28200
H705        H  0.15093613  0.40152502  0.58845899     0.18800
H706        H  0.04201391  0.40052430  0.60098864     0.18800
C707        C  0.41631306  0.08548703  0.58278555    -0.07000
C708        C  0.39643190  0.07472677  0.60436444    -0.18100
C709        C  0.38014711  0.09214779  0.62351031     0.10200
C710        C  0.38371795  0.12149731  0.62107397    -0.06900
C711        C  0.40451792  0.13185242  0.59945505    -0.18200
C712        C  0.42040756  0.11427618  0.58023714     0.10200
S713        S  0.35472195  0.07611535  0.65056661    -0.33100
S714        S  0.44575983  0.12995364  0.55301213    -0.33100
H715        H  0.44425047  0.10899135  0.53131534     0.28200
H716        H  0.36073893  0.04830684  0.64362805     0.28200
H717        H  0.39370596  0.05245014  0.60609516     0.18800
H718        H  0.40844631  0.15367850  0.59634511     0.18800
C719        C  0.11333746  0.13048719  0.60563461    -0.07000
C720        C  0.12411932  0.11838707  0.57890511    -0.18100
C721        C  0.10652669  0.10084129  0.56181334     0.10200
C722        C  0.07759246  0.09358926  0.57224533    -0.06900
C723        C  0.06544545  0.10853467  0.59646249    -0.18200
C724        C  0.08245953  0.12807294  0.61206135     0.10200
S725        S  0.12240210  0.08944404  0.52656813    -0.33100
S726        S  0.06401974  0.15039928  0.63892963    -0.33100
H727        H  0.03483186  0.14357795  0.63107408     0.28200
H728        H  0.09700183  0.09622710  0.51037524     0.28200
H729        H  0.14616693  0.12319748  0.57035277     0.18800
H730        H  0.04253651  0.10504935  0.60320381     0.18800
C731        C  0.37899103  0.38244144  0.88820938    -0.07000
C732        C  0.40878242  0.38600651  0.87874615    -0.18100
C733        C  0.42861567  0.40260889  0.89448992     0.10200
C734        C  0.41829319  0.41793665  0.91956936    -0.06900
C735        C  0.38935566  0.41285437  0.93042621    -0.18200
C736        C  0.37046421  0.39413034  0.91638163     0.10200
S737        S  0.46698479  0.40069474  0.88275833    -0.33100
S738        S  0.33827338  0.38383975  0.93839356    -0.33100
H739        H  0.34294348  0.35544614  0.93355630     0.28200
H740        H  0.47755829  0.39997366  0.91224120     0.28200
H741        H  0.41725974  0.37462269  0.85956780     0.18800
H742        H  0.38162443  0.42267845  0.95093188     0.18800
C743        C  0.38208392  0.12580001  0.89026924    -0.07000
C744        C  0.41215433  0.13183113  0.89603280    -0.18100
C745        C  0.42989440  0.11365799  0.91201130     0.10200
C746        C  0.41786871  0.08824486  0.92222240    -0.06900
C747        C  0.38859929  0.08129888  0.91547153    -0.18200
C748        C  0.37114924  0.09892819  0.89836222     0.10200
S749        S  0.46759909  0.12433972  0.91874901    -0.33100
S750        S  0.33699148  0.08391334  0.88541595    -0.33100
H751        H  0.33929775  0.09536889  0.85640379     0.28200
H752        H  0.46988955  0.11077174  0.94659864     0.28200
H753        H  0.42240600  0.15078435  0.88767259     0.18800
H754        H  0.37987983  0.06106273  0.92192103     0.18800
C755        C  0.11215743  0.37913749  0.88502677    -0.07000
C756        C  0.08993473  0.36990717  0.90571450    -0.18100
C757        C  0.07236626  0.38855076  0.92220789     0.10200
C758        C  0.07682131  0.41726559  0.91833303    -0.06900
C759        C  0.09875408  0.42678450  0.89821012    -0.18200
C760        C  0.11640876  0.40837720  0.88161967     0.10200
S761        S  0.04510451  0.37429199  0.94839081    -0.33100
S762        S  0.14479604  0.42326236  0.85700850    -0.33100
H763        H  0.13468889  0.45074369  0.85741792     0.28200
H764        H  0.02574443  0.39692023  0.94845686     0.28200
H765        H  0.08554611  0.34817414  0.90930603     0.18800
H766        H  0.10238883  0.44892549  0.89595636     0.18800
C767        C  0.41862550  0.41567001  0.58364820    -0.07000
C768        C  0.39621218  0.39989274  0.57031337    -0.18100
C769        C  0.37909524  0.38028586  0.58680100     0.10200
C770        C  0.38323925  0.37695927  0.61820281    -0.06900
C771        C  0.40745603  0.39120853  0.63067835    -0.18200
C772        C  0.42508148  0.41000976  0.61400012     0.10200
S773        S  0.35269411  0.35936733  0.56680583    -0.33100
S774        S  0.45542073  0.42589939  0.63333026    -0.33100
H775        H  0.47669582  0.41645633  0.61226717     0.28200
H776        H  0.35334318  0.37472249  0.53986190     0.28200
H777        H  0.39218323  0.40273122  0.54666733     0.18800
H778        H  0.41386790  0.38741113  0.65344610     0.18800
C779        C  0.43338470  0.93829333  0.06593211     0.41600
N780        N  0.46248260  0.97255431  0.05410370     0.00500
C781        C  0.46378128  0.55552640  0.42670233    -0.07400
H782        H  0.47670271  0.95211917  0.40373897     0.06000
C783        C  0.07098927  0.95133436  0.46399044    -0.07700
Co784      Co  0.44404035  0.00198906  0.49885185     0.74200
N785        N  0.46800656  0.97358700  0.44458156    -0.26900
Co786      Co  0.00087992  0.00362809  0.44490444     0.74100
C787        C  0.06047670  0.93762845  0.43714277     0.41700
N788        N  0.04986884  0.97302883  0.03412561     0.00100
N789        N  0.03334848  0.97297269  0.44628903     0.00200
N790        N  0.42635426  0.55284306  0.46132195    -0.47800
H791        H  0.40450983  0.94649056  0.02466738     0.06000
N792        N  0.44682422  0.97205589  0.46534195     0.00500
N793        N  0.03341054  0.53376566  0.44555171     0.00200
C794        C  0.06540263  0.56486575  0.43227841     0.41800
N795        N  0.02881739  0.97315532  0.05511823    -0.26400
C796        C  0.42370875  0.55281089  0.03759242    -0.07300
N797        N  0.45747421  0.95288170  0.07446994    -0.47500
N798        N  0.04003489  0.55215920  0.42415759    -0.47700
C799        C  0.43395570  0.56602359  0.06487915     0.41600
N800        N  0.44608654  0.53315950  0.46543882     0.00500
N801        N  0.02902238  0.53399420  0.05385195    -0.26400
N802        N  0.44283895  0.97216792  0.03262670    -0.26900
N803        N  0.05041698  0.53350235  0.03321282     0.00100
H804        H  0.01982151  0.56161242  0.09077415     0.06000
H805        H  0.09371920  0.55610301  0.47354532     0.06000
N806        N  0.46801480  0.53406420  0.44529398    -0.26900
N807        N  0.05270957  0.97279068  0.46804601    -0.26600
N808        N  0.46315582  0.53290538  0.05349231     0.00500
C809        C  0.43670466  0.93928200  0.43443928     0.41900
C810        C  0.03411318  0.95287348  0.07496248    -0.07800
N811        N  0.05309382  0.53340972  0.46695038    -0.26600
H812        H  0.08960022  0.94626189  0.47780166     0.06000
N813        N  0.42748475  0.95199205  0.46001166    -0.47800
H814        H  0.02120499  0.94855288  0.09522026     0.06000
C815        C  0.06065952  0.56945592  0.05943194     0.41700
C816        C  0.42358316  0.95125138  0.03803701    -0.07300
Co817      Co  0.49625486  0.50331189  0.05475731     0.73800
N818        N  0.06983638  0.95368646  0.03860470    -0.47500
C819        C  0.43632038  0.56806642  0.43765443     0.42000
N820        N  0.45805881  0.55226667  0.07384266    -0.47500
Co821      Co  0.05224755  0.50306785  0.00053631     0.73900
C822        C  0.07399504  0.55258336  0.46074884    -0.07800
C823        C  0.46340904  0.95412992  0.42398453    -0.07400
N824        N  0.44325137  0.53254039  0.03224167    -0.26900
N825        N  0.03758090  0.95255012  0.42689504    -0.47700
H826        H  0.47755101  0.56094941  0.40732794     0.06000
C827        C  0.03354675  0.55603226  0.07158242    -0.07800
Cl828      Cl  0.99819048  0.50309050  0.99982439    -0.50800
C829        C  0.06154806  0.94014296  0.06400073     0.41700
H830        H  0.40430013  0.55710973  0.02461707     0.05900
N831        N  0.06975196  0.55398018  0.03596452    -0.47500
C832        C  0.13670611  0.64241061  0.35833658     0.85600
C833        C  0.17022740  0.64165879  0.36483038    -0.54600
C834        C  0.18762839  0.65789710  0.34632177     0.08500
C835        C  0.16948681  0.67540643  0.32438856     0.24100
C836        C  0.12964703  0.67335632  0.36222176    -0.55300
C837        C  0.14647204  0.69062555  0.34429369     0.08600
C838        C  0.13465496  0.63672087  0.32451301    -0.54900
C839        C  0.15155870  0.65398661  0.30669468     0.09200
H840        H  0.17955081  0.63075272  0.38364479     0.13700
H841        H  0.18302743  0.68947841  0.30971155    -0.00500
H842        H  0.11377026  0.68116337  0.37868222     0.14000
H843        H  0.12010214  0.62094280  0.31546813     0.13800
C844        C  0.13046456  0.85800448  0.36716663     0.85600
C845        C  0.12497164  0.86228788  0.33352971    -0.54600
C846        C  0.14221466  0.84656102  0.31489928     0.08500
C847        C  0.16317748  0.82715119  0.33169940     0.19500
C848        C  0.12570303  0.82629510  0.37193043    -0.55300
C849        C  0.14304777  0.81035361  0.35338310     0.08600
C850        C  0.16410240  0.86194368  0.37074190    -0.54900
C851        C  0.18139594  0.84634338  0.35186631     0.09200
H852        H  0.10847226  0.87647472  0.32522352     0.13700
H853        H  0.17670665  0.81359972  0.31690295    -0.00500
H854        H  0.11078063  0.81674603  0.38835386     0.14000
H855        H  0.17338503  0.87617258  0.38690860     0.13800
C856        C  0.13298292  0.86265249  0.13316485     0.85600
C857        C  0.16690012  0.86804539  0.13257582    -0.54600
C858        C  0.18239283  0.85058570  0.15029356     0.08500
C859        C  0.16285338  0.82936738  0.16745076     0.19500
C860        C  0.13006176  0.83182726  0.12490967    -0.55300
C861        C  0.14532114  0.81428037  0.14304539     0.08600
C862        C  0.12457816  0.86429521  0.16689787    -0.54900
C863        C  0.13976307  0.84652141  0.18478553     0.09200
H864        H  0.17859041  0.88411758  0.12003708     0.13700
H865        H  0.17576842  0.81555047  0.18210910    -0.00500
H866        H  0.11760675  0.82477449  0.10580602     0.14000
H867        H  0.10826845  0.87861449  0.17589293     0.13800
C868        C  0.13468702  0.64650367  0.12535681     0.85600
C869        C  0.12896032  0.64226547  0.15933888    -0.54600
C870        C  0.14677662  0.65793376  0.17692958     0.08500
C871        C  0.16972984  0.67548183  0.15922934     0.19500
C872        C  0.13346209  0.67802416  0.12002830    -0.55300
C873        C  0.15179524  0.69358843  0.13773659     0.08600
C874        C  0.16777856  0.63930440  0.12149710    -0.54900
C875        C  0.18592913  0.65479090  0.13873545     0.09200
H876        H  0.11267761  0.62778545  0.16877810     0.13700
H877        H  0.18437442  0.68656191  0.17470840    -0.00500
H878        H  0.11918503  0.68702842  0.10337304     0.14000
H879        H  0.17658102  0.62306245  0.10724568     0.13800
C880        C  0.36464841  0.64745944  0.37241270     0.85600
C881        C  0.36939625  0.64295606  0.33856485    -0.54600
C882        C  0.35548302  0.66169888  0.32095895     0.08500
C883        C  0.33781741  0.68332541  0.33866319     0.19500
C884        C  0.37374201  0.67774513  0.37807692    -0.55300
C885        C  0.36004097  0.69632993  0.36027049     0.08600
C886        C  0.33061986  0.64833433  0.37743324    -0.54900
C887        C  0.31615066  0.66636755  0.35885596     0.09200
H888        H  0.38175833  0.62562911  0.32939053     0.13700
H889        H  0.32756799  0.69851461  0.32355385    -0.00500
H890        H  0.38800122  0.68428424  0.39608745     0.14000
H891        H  0.31880946  0.63599124  0.39425423     0.13800
C892        C  0.36370748  0.64071716  0.14000606     0.85600
C893        C  0.33114052  0.63546490  0.13290657    -0.54600
C894        C  0.31181534  0.65058500  0.14957431     0.08500
C895        C  0.32656583  0.67064741  0.17161654     0.19500
C896        C  0.36792931  0.67246449  0.13581802    -0.55300
C897        C  0.34857756  0.68814150  0.15239573     0.08600
C898        C  0.36581368  0.63671936  0.17426760    -0.54900
C899        C  0.34630086  0.65217496  0.19119412     0.09200
H900        H  0.32388938  0.62095503  0.11593476     0.13700
H901        H  0.31043913  0.68369434  0.18391143    -0.00500
H902        H  0.38505255  0.68239357  0.12214345     0.14000
H903        H  0.38185573  0.62297759  0.18414845     0.13800
C904        C  0.36262481  0.85760230  0.13767860     0.85600
C905        C  0.36549122  0.86070505  0.17214691    -0.54600
C906        C  0.34695373  0.84395417  0.18876109     0.08500
C907        C  0.32686584  0.82552355  0.16966066     0.19500
C908        C  0.36688399  0.82633455  0.13209528    -0.55300
C909        C  0.34785147  0.80935853  0.14834249     0.08600
C910        C  0.32934417  0.86282785  0.13286578    -0.54900
C911        C  0.31070541  0.84575503  0.14917682     0.09200
H912        H  0.37967496  0.87544143  0.18325267     0.13700
H913        H  0.31132610  0.81233473  0.18325134    -0.00500
H914        H  0.38413736  0.81853565  0.11715375     0.14000
H915        H  0.32120753  0.87908490  0.11835807     0.13800
C916        C  0.35976815  0.86291716  0.36928186     0.85600
C917        C  0.32593410  0.86633549  0.37264026    -0.54600
C918        C  0.30988377  0.84653584  0.35818388     0.08500
C919        C  0.32907067  0.82599919  0.34015964     0.19500
C920        C  0.36609058  0.83290426  0.37827127    -0.55300
C921        C  0.35001274  0.81373550  0.36333204     0.08600
C922        C  0.36468346  0.86384825  0.33471049    -0.54900
C923        C  0.34876603  0.84440915  0.31942677     0.09200
H924        H  0.31539497  0.88365305  0.38382336     0.13700
H925        H  0.31612921  0.81015154  0.32790912    -0.00500
H926        H  0.38234206  0.82725781  0.39480996     0.14000
H927        H  0.37858738  0.87917425  0.32314779     0.13800
C928        C  0.34595237  0.84432277  0.22221135    -0.07000
C929        C  0.35489605  0.82065409  0.23774646    -0.18100
C930        C  0.35525597  0.81977305  0.26923583     0.10200
C931        C  0.34791426  0.84366569  0.28591012    -0.06900
C932        C  0.33953968  0.86764010  0.27032463    -0.18200
C933        C  0.33804899  0.86812675  0.23886450     0.10200
S934        S  0.36687465  0.78845424  0.28740983    -0.33100
S935        S  0.32609135  0.89983671  0.22149767    -0.33100
H936        H  0.31379715  0.88762952  0.19605855     0.28200
H937        H  0.36672525  0.77137091  0.26191641     0.28200
H938        H  0.36297227  0.80315339  0.22515525     0.18800
H939        H  0.33358640  0.88604505  0.28284479     0.18800
C940        C  0.34899478  0.71918231  0.15151564    -0.07000
C941        C  0.35298593  0.73291161  0.12376799    -0.18100
C942        C  0.35289981  0.76198459  0.12147341     0.10200
C943        C  0.34807569  0.77822341  0.14766391    -0.06900
C944        C  0.34345365  0.76421079  0.17507270    -0.18200
C945        C  0.34506940  0.73546888  0.17752524     0.10200
S946        S  0.35790185  0.77613665  0.08415974    -0.33100
S947        S  0.34551163  0.72163739  0.21500859    -0.33100
H948        H  0.37079307  0.70567865  0.20874713     0.28200
H949        H  0.33997011  0.79919376  0.08878293     0.28200
H950        H  0.35575587  0.72084830  0.10346275     0.18800
H951        H  0.33966669  0.77569699  0.19542809     0.18800
C952        C  0.35407321  0.65951341  0.28784217    -0.07000
C953        C  0.32616574  0.66114636  0.27494928    -0.18100
C954        C  0.32249108  0.65819179  0.24410132     0.10200
C955        C  0.34754359  0.65344998  0.22489721    -0.06900
C956        C  0.37562984  0.65212131  0.23813800    -0.18200
C957        C  0.37919187  0.65537420  0.26906234     0.10200
S958        S  0.28486147  0.65983866  0.23196638    -0.33100
S959        S  0.41653942  0.65570009  0.28265955    -0.33100
H960        H  0.41104350  0.67430811  0.30620459     0.28200
H961        H  0.28964463  0.63949163  0.21065316     0.28200
H962        H  0.30669303  0.66407717  0.28923973     0.18800
H963        H  0.39539047  0.64988285  0.22416860     0.18800
C964        C  0.36134388  0.72622315  0.36593818    -0.07000
C965        C  0.33738579  0.73790208  0.38155285    -0.18100
C966        C  0.33315544  0.76645208  0.38129521     0.10200
C967        C  0.35458160  0.78379369  0.36721463    -0.06900
C968        C  0.38071394  0.77222697  0.35540840    -0.18200
C969        C  0.38399330  0.74349370  0.35387208     0.10200
S970        S  0.29982541  0.77940160  0.39862106    -0.33100
S971        S  0.41623548  0.73030834  0.33436661    -0.33100
H972        H  0.41888623  0.70637315  0.35210155     0.28200
H973        H  0.28888173  0.78925622  0.37134330     0.28200
H974        H  0.32076034  0.72453751  0.39218486     0.18800
H975        H  0.39776597  0.78561411  0.34555156     0.18800
C976        C  0.21823081  0.65142826  0.13802191    -0.07000
C977        C  0.23045507  0.63037422  0.15539028    -0.18100
C978        C  0.26116439  0.62799454  0.15770581     0.10200
C979        C  0.27967910  0.64904411  0.14494571    -0.06900
C980        C  0.26746237  0.66883621  0.12587613    -0.18200
C981        C  0.23705874  0.66910446  0.12082781     0.10200
S982        S  0.27449513  0.59703244  0.17585869    -0.33100
S983        S  0.22406450  0.69142523  0.09130704    -0.33100
H984        H  0.19725916  0.67742804  0.08629030     0.28200
H985        H  0.30449619  0.60433880  0.17731211     0.28200
H986        H  0.21595971  0.61555494  0.16693593     0.18800
H987        H  0.28185602  0.68361360  0.11413407     0.18800
C988        C  0.15168469  0.72482327  0.13761925    -0.07000
C989        C  0.12457759  0.73800301  0.13212826    -0.18100
C990        C  0.12153340  0.76678179  0.13350392     0.10200
C991        C  0.14650542  0.78360921  0.13944338    -0.06900
C992        C  0.17374541  0.77076456  0.14400563    -0.18200
C993        C  0.17666581  0.74187758  0.14411367     0.10200
S994        S  0.08459862  0.77996616  0.12945702    -0.33100
S995        S  0.21281334  0.72849303  0.15251843    -0.33100
H996        H  0.22668997  0.75350826  0.16056093     0.28200
H997        H  0.08702961  0.80014686  0.15182423     0.28200
H998        H  0.10481436  0.72572233  0.12842386     0.18800
H999        H  0.19306275  0.78362367  0.14774485     0.18800
C1000       C  0.21528880  0.85081606  0.15050800    -0.07000
C1001       C  0.23084795  0.84852073  0.12304993    -0.18100
C1002       C  0.26174268  0.84659571  0.12192241     0.10200
C1003       C  0.27784393  0.84748817  0.14877209    -0.06900
C1004       C  0.26224814  0.84999605  0.17621709    -0.18200
C1005       C  0.23132818  0.85212768  0.17726385     0.10200
S1006       S  0.27893703  0.84052318  0.08585577    -0.33100
S1007       S  0.21372542  0.85832399  0.21308219    -0.33100
H1008       H  0.19396930  0.87792940  0.20172096     0.28200
H1009       H  0.29705480  0.81972340  0.09720739     0.28200
H1010       H  0.21872883  0.84711622  0.10236830     0.18800
H1011       H  0.27427470  0.85099809  0.19697245     0.18800
C1012       C  0.14021765  0.84736105  0.28160683    -0.07000
C1013       C  0.13800756  0.82210237  0.26638232    -0.18100
C1014       C  0.13600914  0.82121019  0.23509301     0.10200
C1015       C  0.13679440  0.84609758  0.21816604    -0.06900
C1016       C  0.13800916  0.87138291  0.23345635    -0.18200
C1017       C  0.14023999  0.87235167  0.26470385     0.10200
S1018       S  0.13095904  0.78772385  0.21840640    -0.33100
S1019       S  0.14535488  0.90620069  0.28074932    -0.33100
H1020       H  0.16377770  0.89756064  0.30381603     0.28200
H1021       H  0.11130233  0.79740412  0.19688652     0.28200
H1022       H  0.13725164  0.80284678  0.27903321     0.18800
H1023       H  0.13912246  0.89061275  0.22078706     0.18800
C1024       C  0.21450406  0.84680546  0.35279536    -0.07000
C1025       C  0.22791128  0.84859215  0.38091467    -0.18100
C1026       C  0.25870152  0.84826087  0.38367273     0.10200
C1027       C  0.27704375  0.84617866  0.35759721    -0.06900
C1028       C  0.26379765  0.84404316  0.32959204    -0.18200
C1029       C  0.23304605  0.84478055  0.32683540     0.10200
S1030       S  0.27241445  0.84945554  0.42134254    -0.33100
S1031       S  0.21957346  0.84533116  0.28927706    -0.33100
H1032       H  0.20031043  0.86723744  0.29526569     0.28200
H1033       H  0.29870475  0.83512271  0.41543341     0.28200
H1034       H  0.21425874  0.84943500  0.40119406     0.18800
H1035       H  0.27761994  0.84291706  0.30942358     0.18800
C1036       C  0.15051757  0.65399785  0.27333607    -0.07000
C1037       C  0.14597027  0.67938891  0.25881718    -0.18100
C1038       C  0.14305816  0.68094132  0.22770834     0.10200
C1039       C  0.14573612  0.65677089  0.21019879    -0.06900
C1040       C  0.15006505  0.63127953  0.22458247    -0.18200
C1041       C  0.15266949  0.62963887  0.25581764     0.10200
S1042       S  0.13432050  0.71415234  0.21193696    -0.33100
S1043       S  0.16099956  0.59629006  0.27152524    -0.33100
H1044       H  0.18242242  0.60729357  0.29048344     0.28200
H1045       H  0.11494663  0.70333797  0.19054964     0.28200
H1046       H  0.14373093  0.69815161  0.27189641     0.18800
H1047       H  0.15267105  0.61268808  0.21126771     0.18800
C1048       C  0.22065811  0.65932017  0.34827922    -0.07000
C1049       C  0.23476763  0.68510967  0.34435494    -0.18100
C1050       C  0.26536919  0.68864935  0.34801430     0.10200
C1051       C  0.28305163  0.66544050  0.35534333    -0.06900
C1052       C  0.26891662  0.63940110  0.35800377    -0.18200
C1053       C  0.23842241  0.63597055  0.35444861     0.10200
S1054       S  0.28008943  0.72332473  0.34376726    -0.33100
S1055       S  0.22466908  0.60074597  0.35652154    -0.33100
H1056       H  0.20218505  0.60427984  0.33580034     0.28200
H1057       H  0.25314029  0.73763470  0.34641963     0.28200
H1058       H  0.22171999  0.70289990  0.33866179     0.18800
H1059       H  0.28191139  0.62104354  0.36198038     0.18800
C1060       C  0.14463601  0.72127630  0.34636044    -0.07000
C1061       C  0.16830052  0.73559303  0.35917570    -0.18100
C1062       C  0.16772048  0.76435144  0.36292992     0.10200
C1063       C  0.14289160  0.77953103  0.35368281    -0.06900
C1064       C  0.11878155  0.76518653  0.34155592    -0.18200
C1065       C  0.11941691  0.73629831  0.33764998     0.10200
S1066       S  0.19906165  0.78030452  0.38047360    -0.33100
S1067       S  0.08764296  0.72014050  0.32086650    -0.33100
H1068       H  0.10218376  0.69677824  0.30937581     0.28200
H1069       H  0.18228434  0.80022971  0.39607354     0.28200
H1070       H  0.18701097  0.72418144  0.36733130     0.18800
H1071       H  0.09975947  0.77669298  0.33413080     0.18800
C1072       C  0.08340716  0.58338860  0.41244461    -0.07000
C1073       C  0.06954422  0.60546767  0.39808194    -0.18100
C1074       C  0.08568055  0.62448133  0.38005217     0.10200
C1075       C  0.11711487  0.62213816  0.37699426    -0.06900
C1076       C  0.13021678  0.59846950  0.38971810    -0.18200
C1077       C  0.11400467  0.57942245  0.40729255     0.10200
S1078       S  0.06403684  0.65084390  0.36208848    -0.33100
S1079       S  0.13369776  0.54966689  0.42087691    -0.33100
H1080       H  0.11032103  0.53073475  0.41649343     0.28200
H1081       H  0.07938631  0.65042307  0.33442146     0.28200
H1082       H  0.04581719  0.60801925  0.40106213     0.18800
H1083       H  0.15317836  0.59366577  0.38515777     0.18800
C1084       C  0.11402732  0.88152834  0.11335633    -0.07000
C1085       C  0.12751867  0.90033918  0.09276601    -0.18100
C1086       C  0.11119428  0.91962315  0.07680506     0.10200
C1087       C  0.08000469  0.91979083  0.07987620    -0.06900
C1088       C  0.06605370  0.90002872  0.09865742    -0.18200
C1089       C  0.08247452  0.88072044  0.11499173     0.10200
S1090       S  0.13215188  0.94455098  0.05449441    -0.33100
S1091       S  0.06237533  0.85539608  0.13776492    -0.33100
H1092       H  0.03421503  0.85995129  0.12585462     0.28200
H1093       H  0.11766828  0.96749158  0.06731063     0.28200
H1094       H  0.15104394  0.90076710  0.08858657     0.18800
H1095       H  0.04209685  0.89973867  0.10055919     0.18800
C1096       C  0.41741268  0.58539642  0.08400179    -0.07000
C1097       C  0.39850577  0.57456306  0.10643095    -0.18100
C1098       C  0.38152772  0.59192794  0.12502593     0.10200
C1099       C  0.38375355  0.62128347  0.12145469    -0.06900
C1100       C  0.40310532  0.63173903  0.09857022    -0.18200
C1101       C  0.41983623  0.61420135  0.08007761     0.10200
S1102       S  0.35646535  0.57580235  0.15238660    -0.33100
S1103       S  0.44317988  0.62981623  0.05109903    -0.33100
H1104       H  0.46545339  0.60965456  0.05152324     0.28200
H1105       H  0.36336152  0.54803700  0.14615713     0.28200
H1106       H  0.39677131  0.55227365  0.10897970     0.18800
H1107       H  0.40520336  0.65355279  0.09393222     0.18800
C1108       C  0.11353678  0.63012617  0.10537598    -0.07000
C1109       C  0.12440249  0.61784406  0.07878682    -0.18100
C1110       C  0.10699617  0.59993190  0.06195877     0.10200
C1111       C  0.07799111  0.59280459  0.07231039    -0.06900
C1112       C  0.06576502  0.60788439  0.09638277    -0.18200
C1113       C  0.08269080  0.62754125  0.11189850     0.10200
S1114       S  0.12337278  0.58766631  0.02730236    -0.33100
S1115       S  0.06417526  0.64976364  0.13883107    -0.33100
H1116       H  0.03498810  0.64190632  0.13207336     0.28200
H1117       H  0.09855022  0.59485071  0.01043025     0.28200
H1118       H  0.14644757  0.62265971  0.07022320     0.18800
H1119       H  0.04285127  0.60438386  0.10308454     0.18800
C1120       C  0.37917406  0.88296856  0.38705699    -0.07000
C1121       C  0.40856947  0.88745979  0.37674145    -0.18100
C1122       C  0.42855168  0.90396211  0.39240687     0.10200
C1123       C  0.41876313  0.91819074  0.41848529    -0.06900
C1124       C  0.39023557  0.91224010  0.43000458    -0.18200
C1125       C  0.37128902  0.89363541  0.41586586     0.10200
S1126       S  0.46646931  0.90330972  0.37900711    -0.33100
S1127       S  0.33974700  0.88233206  0.43827367    -0.33100
H1128       H  0.34468667  0.85412801  0.43257131     0.28200
H1129       H  0.47815548  0.90097202  0.40793576     0.28200
H1130       H  0.41675815  0.87679333  0.35696429     0.18800
H1131       H  0.38290818  0.92124339  0.45109714     0.18800
C1132       C  0.38221497  0.62622455  0.39039732    -0.07000
C1133       C  0.41240203  0.63221520  0.39568722    -0.18100
C1134       C  0.43034253  0.61407690  0.41151155     0.10200
C1135       C  0.41840376  0.58873702  0.42207002    -0.06900
C1136       C  0.38904469  0.58179379  0.41566897    -0.18200
C1137       C  0.37137531  0.59938847  0.39874122     0.10200
S1138       S  0.46816527  0.62469533  0.41766025    -0.33100
S1139       S  0.33707113  0.58433277  0.38627401    -0.33100
H1140       H  0.33921900  0.59556977  0.35714509     0.28200
H1141       H  0.47025942  0.61203277  0.44602836     0.28200
H1142       H  0.42254768  0.65114451  0.38711341     0.18800
H1143       H  0.38037519  0.56158922  0.42230347     0.18800
C1144       C  0.11223761  0.87857761  0.38641181    -0.07000
C1145       C  0.08982086  0.86941848  0.40694605    -0.18100
C1146       C  0.07208108  0.88816394  0.42314677     0.10200
C1147       C  0.07680011  0.91685475  0.41941537    -0.06900
C1148       C  0.09902958  0.92627440  0.39959963    -0.18200
C1149       C  0.11664945  0.90780386  0.38307947     0.10200
S1150       S  0.04400963  0.87420707  0.44859580    -0.33100
S1151       S  0.14507980  0.92262672  0.35849145    -0.33100
H1152       H  0.13458551  0.94997846  0.35832987     0.28200
H1153       H  0.02420528  0.89638566  0.44629279     0.28200
H1154       H  0.08526101  0.84768656  0.41042731     0.18800
H1155       H  0.10284406  0.94839829  0.39743055     0.18800
C1156       C  0.41823073  0.91561911  0.08367779    -0.07000
C1157       C  0.39585746  0.89984870  0.07021017    -0.18100
C1158       C  0.37920521  0.87969852  0.08642909     0.10200
C1159       C  0.38329850  0.87626876  0.11781695    -0.06900
C1160       C  0.40749606  0.89047793  0.13035932    -0.18200
C1161       C  0.42492637  0.90955397  0.11386771     0.10200
S1162       S  0.35332575  0.85837842  0.06622733    -0.33100
S1163       S  0.45531765  0.92529576  0.13323607    -0.33100
H1164       H  0.47650043  0.91618544  0.11189668     0.28200
H1165       H  0.36193946  0.86694498  0.03705765     0.28200
H1166       H  0.39141114  0.90317204  0.04672100     0.18800
H1167       H  0.41406323  0.88640672  0.15302892     0.18800
C1168       C  0.43417800  0.93786769  0.56623403     0.41600
N1169       N  0.46293269  0.97242160  0.55428083     0.00500
C1170       C  0.46369712  0.55484850  0.92641875    -0.07400
H1171       H  0.47588764  0.95191215  0.90412107     0.06000
C1172       C  0.07075122  0.95134781  0.96328898    -0.07700
Co1173     Co  0.44360958  0.00243358  0.99898850     0.74200
N1174       N  0.46721431  0.97362838  0.94475494    -0.26900
Co1175     Co  0.00046192  0.00367212  0.94488295     0.74100
C1176       C  0.06013653  0.93775631  0.93641807     0.41700
N1177       N  0.05010120  0.97356786  0.53449755     0.00100
N1178       N  0.03287534  0.97292541  0.94599415     0.00200
N1179       N  0.42644312  0.55239732  0.96127589    -0.47800
H1180       H  0.40551117  0.94545362  0.52468290     0.06000
N1181       N  0.44600139  0.97235507  0.96550162     0.00500
N1182       N  0.03413705  0.53369797  0.94558913     0.00200
C1183       C  0.06623659  0.56479930  0.93259352     0.41800
N1184       N  0.02905498  0.97378227  0.55548134    -0.26400
C1185       C  0.42331565  0.55297297  0.53733135    -0.07300
N1186       N  0.45800428  0.95284170  0.57480890    -0.47500
N1187       N  0.04075610  0.55230994  0.92441313    -0.47700
C1188       C  0.43355430  0.56626337  0.56457957     0.41600
N1189       N  0.44625178  0.53279791  0.96549620     0.00500
N1190       N  0.02775370  0.53455441  0.55387746    -0.26400
N1191       N  0.44346288  0.97166188  0.53263492    -0.26900
N1192       N  0.04924860  0.53413311  0.53333898     0.00100
H1193       H  0.01820218  0.56224762  0.59066743     0.06000
H1194       H  0.09470204  0.55544325  0.97359180     0.06000
N1195       N  0.46807810  0.53358976  0.94522517    -0.26900
N1196       N  0.05236313  0.97267487  0.96763164    -0.26600
N1197       N  0.46264290  0.53296627  0.55337345     0.00500
C1198       C  0.43578432  0.93938641  0.93485195     0.41900
C1199       C  0.03436823  0.95361398  0.57545660    -0.07800
N1200       N  0.05392425  0.53303463  0.96688199    -0.26600
H1201       H  0.08949053  0.94629531  0.97693422     0.06000
N1202       N  0.42658247  0.95230789  0.96031779    -0.47800
H1203       H  0.02143185  0.94933897  0.59570709     0.06000
C1204       C  0.05910633  0.57026048  0.55945812     0.41700
C1205       C  0.42445330  0.95052701  0.53810911    -0.07300
Co1206     Co  0.49563999  0.50323655  0.55468518     0.73800
N1207       N  0.07005721  0.95424795  0.53905830    -0.47500
C1208       C  0.43628850  0.56741483  0.93740593     0.42000
N1209       N  0.45757817  0.55241592  0.57365079    -0.47500
Co1210     Co  0.05153549  0.50356462  0.50080948     0.73900
C1211       C  0.07492089  0.55213837  0.96081890    -0.07800
C1212       C  0.46254207  0.95407951  0.92430207    -0.07400
N1213       N  0.44278411  0.53261901  0.53207727    -0.26900
N1214       N  0.03708754  0.95263263  0.92643048    -0.47700
H1215       H  0.47736489  0.56014189  0.90692689     0.06000
C1216       C  0.03202865  0.55670184  0.57153763    -0.07800
Cl1217     Cl  0.99750273  0.50310046  0.49984206    -0.50800
C1218       C  0.06178378  0.94084080  0.56452782     0.41700
H1219       H  0.40399819  0.55735303  0.52425063     0.05900
N1220       N  0.06842452  0.55472979  0.53612168    -0.47500
C1221       C  0.13742416  0.64261790  0.85887751     0.85600
C1222       C  0.17093959  0.64181783  0.86531138    -0.54600
C1223       C  0.18834580  0.65789156  0.84666247     0.08500
C1224       C  0.17023520  0.67528455  0.82457474     0.24100
C1225       C  0.13045522  0.67362172  0.86249757    -0.55300
C1226       C  0.14731297  0.69072349  0.84438475     0.08600
C1227       C  0.13525859  0.63670022  0.82511497    -0.54900
C1228       C  0.15214456  0.65379538  0.80708280     0.09200
H1229       H  0.18026272  0.63098736  0.88418444     0.13700
H1230       H  0.18383395  0.68921070  0.80978177    -0.00500
H1231       H  0.11456625  0.68158945  0.87884857     0.14000
H1232       H  0.12057104  0.62093749  0.81626312     0.13800
C1233       C  0.13019963  0.85816934  0.86640787     0.85600
C1234       C  0.12485569  0.86246737  0.83276786    -0.54600
C1235       C  0.14217774  0.84675005  0.81422703     0.08500
C1236       C  0.16311887  0.82737242  0.83106750     0.19500
C1237       C  0.12550020  0.82643391  0.87115269    -0.55300
C1238       C  0.14300042  0.81052658  0.85268536     0.08600
C1239       C  0.16382447  0.86212540  0.87014674    -0.54900
C1240       C  0.18119932  0.84655487  0.85131435     0.09200
H1241       H  0.10836991  0.87663132  0.82438513     0.13700
H1242       H  0.17674407  0.81387108  0.81629974    -0.00500
H1243       H  0.11060639  0.81687810  0.88760363     0.14000
H1244       H  0.17304189  0.87626933  0.88643706     0.13800
C1245       C  0.13286716  0.86258873  0.63273175     0.85600
C1246       C  0.16678276  0.86799350  0.63224518    -0.54600
C1247       C  0.18222265  0.85049197  0.64995809     0.08500
C1248       C  0.16262580  0.82925499  0.66702184     0.19500
C1249       C  0.12993934  0.83180228  0.62439337    -0.55300
C1250       C  0.14512629  0.81424214  0.64255728     0.08600
C1251       C  0.12437363  0.86417747  0.66642915    -0.54900
C1252       C  0.13948151  0.84635745  0.68430460     0.09200
H1253       H  0.17849018  0.88412737  0.61980994     0.13700
H1254       H  0.17549199  0.81541177  0.68169628    -0.00500
H1255       H  0.11748198  0.82477531  0.60527993     0.14000
H1256       H  0.10806654  0.87850464  0.67541737     0.13800
C1257       C  0.13370276  0.64655841  0.62570230     0.85600
C1258       C  0.12828675  0.64212586  0.65970901    -0.54600
C1259       C  0.14627982  0.65768442  0.67724501     0.08500
C1260       C  0.16905309  0.67536595  0.65940876     0.19500
C1261       C  0.13242046  0.67808905  0.62058615    -0.55300
C1262       C  0.15092707  0.69357129  0.63818065     0.08600
C1263       C  0.16678520  0.63940997  0.62145587    -0.54900
C1264       C  0.18508840  0.65482609  0.63861760     0.09200
H1265       H  0.11203635  0.62763956  0.66918982     0.13700
H1266       H  0.18385007  0.68637874  0.67479098    -0.00500
H1267       H  0.11804380  0.68715330  0.60405722     0.14000
H1268       H  0.17546292  0.62326333  0.60699975     0.13800
C1269       C  0.36540230  0.64716729  0.87198996     0.85600
C1270       C  0.36994378  0.64253546  0.83813692    -0.54600
C1271       C  0.35597740  0.66126871  0.82055918     0.08500
C1272       C  0.33845920  0.68298779  0.83830452     0.19500
C1273       C  0.37465244  0.67745524  0.87746213    -0.55300
C1274       C  0.36086079  0.69601881  0.85969130     0.08600
C1275       C  0.33143190  0.64815704  0.87724962    -0.54900
C1276       C  0.31689272  0.66615570  0.85873021     0.09200
H1277       H  0.38219526  0.62514251  0.82895636     0.13700
H1278       H  0.32810839  0.69815982  0.82324181    -0.00500
H1279       H  0.38898597  0.68403846  0.89539094     0.14000
H1280       H  0.31970955  0.63591760  0.89422608     0.13800
C1281       C  0.36281316  0.64088796  0.63957943     0.85600
C1282       C  0.33017924  0.63597358  0.63250646    -0.54600
C1283       C  0.31102370  0.65110163  0.64939680     0.08500
C1284       C  0.32600285  0.67084178  0.67161650     0.19500
C1285       C  0.36728763  0.67265137  0.63572907    -0.55300
C1286       C  0.34810683  0.68833945  0.65250962     0.08600
C1287       C  0.36492589  0.63653926  0.67378157    -0.54900
C1288       C  0.34564473  0.65204398  0.69092097     0.09200
H1289       H  0.32275413  0.62164504  0.61543870     0.13700
H1290       H  0.31000384  0.68385263  0.68414360    -0.00500
H1291       H  0.38440695  0.68258387  0.62206197     0.14000
H1292       H  0.38084745  0.62256034  0.68347920     0.13800
C1293       C  0.36264974  0.85772611  0.63832966     0.85600
C1294       C  0.36519665  0.86090183  0.67282893    -0.54600
C1295       C  0.34644399  0.84424558  0.68931343     0.08500
C1296       C  0.32648412  0.82581352  0.67009157     0.19500
C1297       C  0.36682723  0.82642809  0.63290793    -0.55300
C1298       C  0.34756244  0.80955478  0.64898480     0.08600
C1299       C  0.32940410  0.86300282  0.63316100    -0.54900
C1300       C  0.31056408  0.84602504  0.64941155     0.09200
H1301       H  0.37939276  0.87553303  0.68405979     0.13700
H1302       H  0.31081665  0.81267347  0.68359044    -0.00500
H1303       H  0.38416553  0.81852684  0.61813922     0.14000
H1304       H  0.32146159  0.87919335  0.61845128     0.13800
C1305       C  0.35911935  0.86261165  0.86996873     0.85600
C1306       C  0.32526752  0.86556750  0.87348636    -0.54600
C1307       C  0.30946497  0.84572582  0.85883209     0.08500
C1308       C  0.32888527  0.82558017  0.84053403     0.19500
C1309       C  0.36593061  0.83259819  0.87859387    -0.55300
C1310       C  0.35012577  0.81337107  0.86344423     0.08600
C1311       C  0.36387488  0.86392974  0.83537620    -0.54900
C1312       C  0.34823528  0.84440114  0.81994458     0.09200
H1313       H  0.31451373  0.88272592  0.88474822     0.13700
H1314       H  0.31611225  0.80970250  0.82815308    -0.00500
H1315       H  0.38227639  0.82700789  0.89505718     0.14000
H1316       H  0.37750622  0.87953154  0.82392278     0.13800
C1317       C  0.34530942  0.84453774  0.72275743    -0.07000
C1318       C  0.35432823  0.82085365  0.73820778    -0.18100
C1319       C  0.35474710  0.81992865  0.76968536     0.10200
C1320       C  0.34741900  0.84377908  0.78643232    -0.06900
C1321       C  0.33888986  0.86774985  0.77093089    -0.18200
C1322       C  0.33728803  0.86826715  0.73947582     0.10200
S1323       S  0.36642713  0.78856156  0.78768490    -0.33100
S1324       S  0.32493397  0.89988209  0.72221242    -0.33100
H1325       H  0.31287029  0.88761826  0.69669306     0.28200
H1326       H  0.36458996  0.77127356  0.76244933     0.28200
H1327       H  0.36237268  0.80338110  0.72557539     0.18800
H1328       H  0.33285081  0.88609596  0.78350811     0.18800
C1329       C  0.34865371  0.71939133  0.65180101    -0.07000
C1330       C  0.35285564  0.73323242  0.62414051    -0.18100
C1331       C  0.35266973  0.76230550  0.62197956     0.10200
C1332       C  0.34760108  0.77842892  0.64819603    -0.06900
C1333       C  0.34275604  0.76433142  0.67552313    -0.18200
C1334       C  0.34450763  0.73557655  0.67785551     0.10200
S1335       S  0.35773397  0.77664782  0.58476291    -0.33100
S1336       S  0.34507170  0.72163720  0.71529067    -0.33100
H1337       H  0.37026166  0.70559747  0.70887909     0.28200
H1338       H  0.33936191  0.79940679  0.58947981     0.28200
H1339       H  0.35580689  0.72127079  0.60379224     0.18800
H1340       H  0.33885374  0.77574630  0.69588120     0.18800
C1341       C  0.35430484  0.65901518  0.78746915    -0.07000
C1342       C  0.32628631  0.66078798  0.77484086    -0.18100
C1343       C  0.32230017  0.65787746  0.74404152     0.10200
C1344       C  0.34717087  0.65315922  0.72459502    -0.06900
C1345       C  0.37537494  0.65166308  0.73755957    -0.18200
C1346       C  0.37923280  0.65473132  0.76845953     0.10200
S1347       S  0.28452357  0.65953887  0.73232291    -0.33100
S1348       S  0.41669496  0.65453968  0.78172665    -0.33100
H1349       H  0.41169784  0.67342390  0.80512391     0.28200
H1350       H  0.28911170  0.63981924  0.71029568     0.28200
H1351       H  0.30695356  0.66377011  0.78931418     0.18800
H1352       H  0.39499892  0.64938124  0.72339663     0.18800
C1353       C  0.36204504  0.72590613  0.86542208    -0.07000
C1354       C  0.33809682  0.73741820  0.88120620    -0.18100
C1355       C  0.33362166  0.76592977  0.88094981     0.10200
C1356       C  0.35498074  0.78344298  0.86706986    -0.06900
C1357       C  0.38114374  0.77205255  0.85508675    -0.18200
C1358       C  0.38448850  0.74332772  0.85321186     0.10200
S1359       S  0.29991993  0.77865357  0.89771944    -0.33100
S1360       S  0.41642648  0.73034897  0.83299536    -0.33100
H1361       H  0.41922087  0.70607614  0.85015437     0.28200
H1362       H  0.28858798  0.78688134  0.86996013     0.28200
H1363       H  0.32159242  0.72394032  0.89185836     0.18800
H1364       H  0.39807957  0.78556770  0.84523491     0.18800
C1365       C  0.21740324  0.65153177  0.63768711    -0.07000
C1366       C  0.22975436  0.63040986  0.65484654    -0.18100
C1367       C  0.26046838  0.62830695  0.65734451     0.10200
C1368       C  0.27884148  0.64966549  0.64498910    -0.06900
C1369       C  0.26650251  0.66962953  0.62620302    -0.18200
C1370       C  0.23613667  0.66960337  0.62088593     0.10200
S1371       S  0.27399548  0.59731739  0.67528192    -0.33100
S1372       S  0.22309481  0.69191624  0.59137516    -0.33100
H1373       H  0.19641282  0.67774425  0.58624460     0.28200
H1374       H  0.30386746  0.60493611  0.67728936     0.28200
H1375       H  0.21535248  0.61535153  0.66613789     0.18800
H1376       H  0.28079888  0.68467516  0.61475159     0.18800
C1377       C  0.15097293  0.72480419  0.63796733    -0.07000
C1378       C  0.12390120  0.73805449  0.63248215    -0.18100
C1379       C  0.12104226  0.76685215  0.63344704     0.10200
C1380       C  0.14613820  0.78359559  0.63908848    -0.06900
C1381       C  0.17332010  0.77069451  0.64368926    -0.18200
C1382       C  0.17608537  0.74181128  0.64415155     0.10200
S1383       S  0.08421002  0.78020687  0.62918594    -0.33100
S1384       S  0.21217738  0.72841672  0.65273512    -0.33100
H1385       H  0.22638913  0.75352303  0.65985075     0.28200
H1386       H  0.08669283  0.80037531  0.65155983     0.28200
H1387       H  0.10403952  0.72584205  0.62903480     0.18800
H1388       H  0.19270414  0.78352316  0.64723085     0.18800
C1389       C  0.21511527  0.85075763  0.65030915    -0.07000
C1390       C  0.23081219  0.84848016  0.62291784    -0.18100
C1391       C  0.26173242  0.84673963  0.62194517     0.10200
C1392       C  0.27770069  0.84777132  0.64885000    -0.06900
C1393       C  0.26195883  0.85016554  0.67622835    -0.18200
C1394       C  0.23102930  0.85214539  0.67713855     0.10200
S1395       S  0.27923457  0.84047624  0.58609109    -0.33100
S1396       S  0.21325653  0.85826857  0.71288602    -0.33100
H1397       H  0.19351569  0.87783868  0.70143560     0.28200
H1398       H  0.29510361  0.81804852  0.59743182     0.28200
H1399       H  0.21879582  0.84695703  0.60218302     0.18800
H1400       H  0.27387084  0.85117240  0.69705096     0.18800
C1401       C  0.14016546  0.84744183  0.78098205    -0.07000
C1402       C  0.13786467  0.82212295  0.76589892    -0.18100
C1403       C  0.13579129  0.82111277  0.73463747     0.10200
C1404       C  0.13647220  0.84596169  0.71764124    -0.06900
C1405       C  0.13771867  0.87130048  0.73281242    -0.18200
C1406       C  0.14016965  0.87237784  0.76400763     0.10200
S1407       S  0.13094260  0.78752241  0.71811604    -0.33100
S1408       S  0.14562521  0.90627869  0.77983449    -0.33100
H1409       H  0.16368980  0.89764979  0.80319106     0.28200
H1410       H  0.11152309  0.79702202  0.69629208     0.28200
H1411       H  0.13715231  0.80291605  0.77863638     0.18800
H1412       H  0.13880010  0.89048911  0.72006982     0.18800
C1413       C  0.21425744  0.84678700  0.85252887    -0.07000
C1414       C  0.22739216  0.84814455  0.88080249    -0.18100
C1415       C  0.25812082  0.84737948  0.88386492     0.10200
C1416       C  0.27666390  0.84533789  0.85793871    -0.06900
C1417       C  0.26368332  0.84363119  0.82976284    -0.18200
C1418       C  0.23299000  0.84476436  0.82670956     0.10200
S1419       S  0.27148424  0.84807851  0.92169699    -0.33100
S1420       S  0.21987471  0.84578828  0.78901125    -0.33100
H1421       H  0.20034808  0.86745599  0.79512342     0.28200
H1422       H  0.29792836  0.83397005  0.91586415     0.28200
H1423       H  0.21355389  0.84896609  0.90095628     0.18800
H1424       H  0.27768051  0.84259111  0.80970977     0.18800
C1425       C  0.15073019  0.65371538  0.77371087    -0.07000
C1426       C  0.14636007  0.67912485  0.75916608    -0.18100
C1427       C  0.14323198  0.68067667  0.72808017     0.10200
C1428       C  0.14543316  0.65647456  0.71056027    -0.06900
C1429       C  0.14941422  0.63092747  0.72497913    -0.18200
C1430       C  0.15229018  0.62928958  0.75621212     0.10200
S1431       S  0.13486947  0.71398321  0.71234115    -0.33100
S1432       S  0.16015986  0.59580874  0.77189208    -0.33100
H1433       H  0.18130455  0.60647230  0.79136696     0.28200
H1434       H  0.11493472  0.70339042  0.69135296     0.28200
H1435       H  0.14447037  0.69793728  0.77221358     0.18800
H1436       H  0.15157575  0.61227607  0.71168575     0.18800
C1437       C  0.22135208  0.65930644  0.84871127    -0.07000
C1438       C  0.23545030  0.68510292  0.84494463    -0.18100
C1439       C  0.26607559  0.68856983  0.84843167     0.10200
C1440       C  0.28376549  0.66531726  0.85556026    -0.06900
C1441       C  0.26959177  0.63930490  0.85831825    -0.18200
C1442       C  0.23908900  0.63592763  0.85481450     0.10200
S1443       S  0.28082102  0.72318394  0.84396107    -0.33100
S1444       S  0.22526834  0.60073017  0.85671024    -0.33100
H1445       H  0.20295936  0.60443561  0.83583119     0.28200
H1446       H  0.25401694  0.73751687  0.84795381     0.28200
H1447       H  0.22238537  0.70292756  0.83937996     0.18800
H1448       H  0.28256732  0.62091964  0.86221407     0.18800
C1449       C  0.14539928  0.72140692  0.84601251    -0.07000
C1450       C  0.16877210  0.73592129  0.85912855    -0.18100
C1451       C  0.16788625  0.76468978  0.86284282     0.10200
C1452       C  0.14313465  0.77969955  0.85305657    -0.06900
C1453       C  0.11943268  0.76518365  0.84041458    -0.18200
C1454       C  0.12027650  0.73627961  0.83672685     0.10200
S1455       S  0.19862781  0.78083156  0.88121963    -0.33100
S1456       S  0.08876397  0.71996280  0.81961168    -0.33100
H1457       H  0.10290541  0.69576698  0.80985567     0.28200
H1458       H  0.18133887  0.80071888  0.89628970     0.28200
H1459       H  0.18741771  0.72464585  0.86765479     0.18800
H1460       H  0.10050250  0.77656215  0.83254680     0.18800
C1461       C  0.08421940  0.58356312  0.91302677    -0.07000
C1462       C  0.07038335  0.60586663  0.89904892    -0.18100
C1463       C  0.08647879  0.62485479  0.88095076     0.10200
C1464       C  0.11788687  0.62245180  0.87772662    -0.06900
C1465       C  0.13097569  0.59866535  0.89021297    -0.18200
C1466       C  0.11475810  0.57949440  0.90761448     0.10200
S1467       S  0.06479734  0.65101621  0.86272430    -0.33100
S1468       S  0.13426202  0.54932273  0.92038939    -0.33100
H1469       H  0.11075298  0.53067553  0.91540522     0.28200
H1470       H  0.07975662  0.64984656  0.83487382     0.28200
H1471       H  0.04668029  0.60847748  0.90218087     0.18800
H1472       H  0.15388938  0.59380108  0.88544851     0.18800
C1473       C  0.11395163  0.88150268  0.61300998    -0.07000
C1474       C  0.12749682  0.90030250  0.59247074    -0.18100
C1475       C  0.11127133  0.91991387  0.57691686     0.10200
C1476       C  0.08011042  0.92032169  0.58023835    -0.06900
C1477       C  0.06606337  0.90050226  0.59886829    -0.18200
C1478       C  0.08240175  0.88092900  0.61490849     0.10200
S1479       S  0.13233412  0.94491800  0.55480417    -0.33100
S1480       S  0.06228160  0.85532442  0.63733412    -0.33100
H1481       H  0.03351080  0.86479944  0.63188424     0.28200
H1482       H  0.11792897  0.96783597  0.56776160     0.28200
H1483       H  0.15099515  0.90047820  0.58806650     0.18800
H1484       H  0.04210618  0.90027804  0.60068207     0.18800
C1485       C  0.41694657  0.58571357  0.58360235    -0.07000
C1486       C  0.39754081  0.57481939  0.60557456    -0.18100
C1487       C  0.38038036  0.59210816  0.62408559     0.10200
C1488       C  0.38278683  0.62147392  0.62085610    -0.06900
C1489       C  0.40261716  0.63201355  0.59844052    -0.18200
C1490       C  0.41960403  0.61458502  0.58002389     0.10200
S1491       S  0.35477703  0.57581913  0.65078422    -0.33100
S1492       S  0.44346426  0.63071211  0.55171966    -0.33100
H1493       H  0.46305539  0.60861129  0.54723319     0.28200
H1494       H  0.36544380  0.54863029  0.64814074     0.28200
H1495       H  0.39546927  0.55251901  0.60777932     0.18800
H1496       H  0.40495340  0.65385924  0.59412654     0.18800
C1497       C  0.11235117  0.63035365  0.60577229    -0.07000
C1498       C  0.12296485  0.61839742  0.57891165    -0.18100
C1499       C  0.10533556  0.60083064  0.56191123     0.10200
C1500       C  0.07641725  0.59358774  0.57242343    -0.06900
C1501       C  0.06439136  0.60843750  0.59677007    -0.18200
C1502       C  0.08151479  0.62785842  0.61242035     0.10200
S1503       S  0.12126183  0.58927621  0.52674918    -0.33100
S1504       S  0.06323153  0.64982038  0.63974068    -0.33100
H1505       H  0.03408035  0.64412540  0.63086959     0.28200
H1506       H  0.09595924  0.59617089  0.51046311     0.28200
H1507       H  0.14495454  0.62326824  0.57023757     0.18800
H1508       H  0.04152273  0.60491122  0.60364559     0.18800
C1509       C  0.37835886  0.88274327  0.88781310    -0.07000
C1510       C  0.40764064  0.88747228  0.87732148    -0.18100
C1511       C  0.42760915  0.90402022  0.89289067     0.10200
C1512       C  0.41792789  0.91807665  0.91912116    -0.06900
C1513       C  0.38955901  0.91182294  0.93089627    -0.18200
C1514       C  0.37056700  0.89324073  0.91673703     0.10200
S1515       S  0.46541587  0.90352515  0.87915431    -0.33100
S1516       S  0.33894223  0.88200028  0.93908408    -0.33100
H1517       H  0.34356980  0.85380783  0.93305237     0.28200
H1518       H  0.47731044  0.90090059  0.90796479     0.28200
H1519       H  0.41578702  0.87693707  0.85744213     0.18800
H1520       H  0.38235861  0.92067554  0.95210905     0.18800
C1521       C  0.38279619  0.62587426  0.89002326    -0.07000
C1522       C  0.41291930  0.63179422  0.89564332    -0.18100
C1523       C  0.43062047  0.61358647  0.91163248     0.10200
C1524       C  0.41851815  0.58822419  0.92192907    -0.06900
C1525       C  0.38920217  0.58138561  0.91529341    -0.18200
C1526       C  0.37175880  0.59907328  0.89825911     0.10200
S1527       S  0.46832582  0.62420359  0.91842803    -0.33100
S1528       S  0.33747725  0.58418088  0.88551791    -0.33100
H1529       H  0.34017555  0.59509818  0.85628362     0.28200
H1530       H  0.47026993  0.61099611  0.94651941     0.28200
H1531       H  0.42320914  0.65071034  0.88722160     0.18800
H1532       H  0.38041425  0.56119145  0.92180606     0.18800
C1533       C  0.11182680  0.87874223  0.88552415    -0.07000
C1534       C  0.08885999  0.86959839  0.90542972    -0.18100
C1535       C  0.07103136  0.88835608  0.92153133     0.10200
C1536       C  0.07637376  0.91702830  0.91852592    -0.06900
C1537       C  0.09905062  0.92642901  0.89922300    -0.18200
C1538       C  0.11656168  0.90796475  0.88255744     0.10200
S1539       S  0.04198022  0.87441644  0.94584533    -0.33100
S1540       S  0.14507873  0.92275201  0.85801699    -0.33100
H1541       H  0.13603821  0.95052674  0.85957486     0.28200
H1542       H  0.02291349  0.89718973  0.94403809     0.28200
H1543       H  0.08385734  0.84787522  0.90834448     0.18800
H1544       H  0.10316718  0.94853300  0.89744673     0.18800
C1545       C  0.41901748  0.91522286  0.58417361    -0.07000
C1546       C  0.39710134  0.89895060  0.57060203    -0.18100
C1547       C  0.38009610  0.87912468  0.58698930     0.10200
C1548       C  0.38364290  0.87621802  0.61851867    -0.06900
C1549       C  0.40749724  0.89083892  0.63122118    -0.18200
C1550       C  0.42511174  0.90976305  0.61465533     0.10200
S1551       S  0.35459695  0.85735250  0.56683344    -0.33100
S1552       S  0.45489316  0.92618046  0.63433656    -0.33100
H1553       H  0.47661189  0.91721065  0.61348758     0.28200
H1554       H  0.35712784  0.87101034  0.53891127     0.28200
H1555       H  0.39336755  0.90160515  0.54687432     0.18800
H1556       H  0.41361366  0.88730149  0.65412393     0.18800
C1557       C  0.93440309  0.43789002  0.06584812     0.41600
N1558       N  0.96307603  0.47242228  0.05411649     0.00500
C1559       C  0.96365050  0.05483111  0.42655530    -0.07400
H1560       H  0.97623620  0.45173182  0.40378037     0.06000
C1561       C  0.57072334  0.45133147  0.46332315    -0.07700
Co1562     Co  0.94332163  0.50176975  0.49881539     0.74200
N1563       N  0.96750321  0.47331882  0.44459732    -0.26900
Co1564     Co  0.50066510  0.50385822  0.44450453     0.74100
C1565       C  0.56037024  0.43789552  0.43627752     0.41700
N1566       N  0.55043660  0.47340336  0.03395669     0.00100
N1567       N  0.53308372  0.47307011  0.44569412     0.00200
N1568       N  0.92620100  0.05224968  0.46118387    -0.47800
H1569       H  0.90533379  0.44599846  0.02468854     0.06000
N1570       N  0.94628309  0.47181587  0.46532930     0.00500
N1571       N  0.53395614  0.03394465  0.44560600     0.00200
C1572       C  0.56541041  0.06560692  0.43263770     0.41800
N1573       N  0.52937720  0.47352933  0.05493805    -0.26400
C1574       C  0.92403375  0.05329728  0.03779994    -0.07300
N1575       N  0.95834766  0.45263587  0.07440838    -0.47500
N1576       N  0.54018125  0.05270811  0.42448780    -0.47700
C1577       C  0.93448243  0.06653320  0.06501088     0.41600
N1578       N  0.94613227  0.03278968  0.46560212     0.00500
N1579       N  0.52880806  0.03401045  0.05384377    -0.26400
N1580       N  0.94340092  0.47198339  0.03267616    -0.26900
N1581       N  0.55020561  0.03345728  0.03320666     0.00100
H1582       H  0.51963442  0.06177037  0.09067573     0.06000
H1583       H  0.59418510  0.05653504  0.47351432     0.06000
N1584       N  0.96806760  0.03365477  0.44545682    -0.26900
N1585       N  0.55238205  0.47271627  0.46750597    -0.26600
N1586       N  0.96307123  0.03287030  0.05387134     0.00500
C1587       C  0.93631150  0.43892815  0.43455317     0.41900
C1588       C  0.53478685  0.45334288  0.07486217    -0.07800
N1589       N  0.55378042  0.03347656  0.46686826    -0.26600
H1590       H  0.58932497  0.44620188  0.47712645     0.06000
N1591       N  0.92700650  0.45169298  0.46004938    -0.47800
H1592       H  0.52188663  0.44902851  0.09512406     0.06000
C1593       C  0.56049434  0.06949764  0.05935370     0.41700
C1594       C  0.92437917  0.45088479  0.03804389    -0.07300
Co1595     Co  0.99593323  0.00309530  0.05508686     0.73800
N1596       N  0.57050632  0.45415977  0.03850749    -0.47500
C1597       C  0.93607282  0.06724916  0.43729777     0.42000
N1598       N  0.95830095  0.05241471  0.07409992    -0.47500
Co1599     Co  0.55188525  0.00296508  0.00050746     0.73900
C1600       C  0.57442857  0.05293169  0.46079006    -0.07800
C1601       C  0.96295331  0.45381323  0.42403387    -0.07400
N1602       N  0.94317981  0.03266477  0.03259691    -0.26900
N1603       N  0.53745528  0.45283958  0.42608941    -0.47700
H1604       H  0.97736079  0.06010573  0.40708891     0.06000
C1605       C  0.53336473  0.05610216  0.07151978    -0.07800
Cl1606     Cl  0.49781930  0.00305142  0.99979920    -0.50800
C1607       C  0.56227952  0.44066098  0.06395145     0.41700
H1608       H  0.90477699  0.05790260  0.02472279     0.05900
N1609       N  0.56957557  0.05392619  0.03593524    -0.47500
C1610       C  0.63666071  0.14284397  0.35831176     0.85600
C1611       C  0.67018876  0.14156038  0.36465116    -0.54600
C1612       C  0.68780539  0.15753734  0.34609286     0.08500
C1613       C  0.66988476  0.17532459  0.32420220     0.24100
C1614       C  0.63017864  0.17391790  0.36219747    -0.55300
C1615       C  0.64725039  0.19093310  0.34418754     0.08600
C1616       C  0.63435065  0.13717450  0.32453918    -0.54900
C1617       C  0.65149967  0.15416268  0.30668495     0.09200
H1618       H  0.67932721  0.13058285  0.38351880     0.13700
H1619       H  0.68354680  0.18915228  0.30936179    -0.00500
H1620       H  0.61442059  0.18198210  0.37861759     0.14000
H1621       H  0.61955588  0.12157268  0.31552603     0.13800
C1622       C  0.63070514  0.35844163  0.36651791     0.85600
C1623       C  0.62500442  0.36246115  0.33292787    -0.54600
C1624       C  0.64235942  0.34680046  0.31438581     0.08500
C1625       C  0.66350150  0.32758354  0.33114746     0.19500
C1626       C  0.62619296  0.32670341  0.37149432    -0.55300
C1627       C  0.64360320  0.31077095  0.35298964     0.08600
C1628       C  0.66434729  0.36268573  0.36984487    -0.54900
C1629       C  0.68166355  0.34699222  0.35104715     0.09200
H1630       H  0.60835685  0.37646965  0.32457330     0.13700
H1631       H  0.67704544  0.31403194  0.31636948    -0.00500
H1632       H  0.61125904  0.31712699  0.38788311     0.14000
H1633       H  0.67360266  0.37712024  0.38581561     0.13800
C1634       C  0.63329884  0.36265632  0.13296502     0.85600
C1635       C  0.66728613  0.36772713  0.13218997    -0.54600
C1636       C  0.68263367  0.35024681  0.15000731     0.08500
C1637       C  0.66296791  0.32932813  0.16736942     0.19500
C1638       C  0.63002402  0.33179224  0.12495509    -0.55300
C1639       C  0.64521401  0.31422859  0.14315418     0.08600
C1640       C  0.62504398  0.36456043  0.16669827    -0.54900
C1641       C  0.64008980  0.34671419  0.18460424     0.09200
H1642       H  0.67912460  0.38358215  0.11946528     0.13700
H1643       H  0.67583814  0.31559662  0.18215918    -0.00500
H1644       H  0.61745489  0.32474771  0.10593299     0.14000
H1645       H  0.60887865  0.37903555  0.17566558     0.13800
C1646       C  0.63465947  0.14642786  0.12548847     0.85600
C1647       C  0.62885049  0.14170507  0.15938321    -0.54600
C1648       C  0.64644365  0.15732274  0.17723340     0.08500
C1649       C  0.66929078  0.17526935  0.15993466     0.19500
C1650       C  0.63311203  0.17802495  0.12069639    -0.55300
C1651       C  0.65126416  0.19349793  0.13870550     0.08600
C1652       C  0.66787574  0.13963942  0.12158538    -0.54900
C1653       C  0.68580114  0.15506110  0.13914908     0.09200
H1654       H  0.61250703  0.12713627  0.16854889     0.13700
H1655       H  0.68371105  0.18623708  0.17570239    -0.00500
H1656       H  0.61882773  0.18713756  0.10411914     0.14000
H1657       H  0.67696589  0.12374678  0.10706712     0.13800
C1658       C  0.86473750  0.14693359  0.37222502     0.85600
C1659       C  0.86918614  0.14257440  0.33831992    -0.54600
C1660       C  0.85518489  0.16143221  0.32093289     0.08500
C1661       C  0.83772397  0.18299525  0.33891656     0.19500
C1662       C  0.87395825  0.17716819  0.37798577    -0.55300
C1663       C  0.86016842  0.19584312  0.36038182     0.08600
C1664       C  0.83078517  0.14785727  0.37758837    -0.54900
C1665       C  0.81619116  0.16600824  0.35924517     0.09200
H1666       H  0.88148028  0.12529158  0.32895402     0.13700
H1667       H  0.82742861  0.19827979  0.32396788    -0.00500
H1668       H  0.88830392  0.18362762  0.39595569     0.14000
H1669       H  0.81915600  0.13537178  0.39442158     0.13800
C1670       C  0.86376287  0.14128884  0.13980640     0.85600
C1671       C  0.83116911  0.13629825  0.13264232    -0.54600
C1672       C  0.81195049  0.15162243  0.14924945     0.08500
C1673       C  0.82684463  0.17149764  0.17139559     0.19500
C1674       C  0.86835339  0.17301840  0.13575593    -0.55300
C1675       C  0.84910742  0.18885093  0.15228171     0.08600
C1676       C  0.86573511  0.13721433  0.17407951    -0.54900
C1677       C  0.84630237  0.15277015  0.19099920     0.09200
H1678       H  0.82382356  0.12176059  0.11574453     0.13700
H1679       H  0.81082274  0.18464256  0.18371478    -0.00500
H1680       H  0.88580071  0.18277932  0.12234300     0.14000
H1681       H  0.88163360  0.12334417  0.18398434     0.13800
C1682       C  0.86267267  0.35844330  0.13800709     0.85600
C1683       C  0.86534046  0.36178193  0.17245275    -0.54600
C1684       C  0.84699210  0.34483167  0.18904039     0.08500
C1685       C  0.82726146  0.32604227  0.16995745     0.19500
C1686       C  0.86741298  0.32723178  0.13259627    -0.55300
C1687       C  0.84854158  0.31009004  0.14878311     0.08600
C1688       C  0.82930852  0.36323926  0.13303817    -0.54900
C1689       C  0.81088695  0.34593156  0.14931591     0.09200
H1690       H  0.87930665  0.37674917  0.18350575     0.13700
H1691       H  0.81186638  0.31270743  0.18355160    -0.00500
H1692       H  0.88481946  0.31959656  0.11773522     0.14000
H1693       H  0.82093657  0.37936849  0.11850962     0.13800
C1694       C  0.85993328  0.36227321  0.36941406     0.85600
C1695       C  0.82608788  0.36577150  0.37256491    -0.54600
C1696       C  0.81006088  0.34606385  0.35794102     0.08500
C1697       C  0.82929989  0.32552981  0.33998766     0.19500
C1698       C  0.86612491  0.33223118  0.37834404    -0.55300
C1699       C  0.85007397  0.31315076  0.36325390     0.08600
C1700       C  0.86505904  0.36331337  0.33491100    -0.54900
C1701       C  0.84914956  0.34399446  0.31948994     0.09200
H1702       H  0.81553050  0.38311921  0.38366831     0.13700
H1703       H  0.81641968  0.30975603  0.32756232    -0.00500
H1704       H  0.88228230  0.32649937  0.39494553     0.14000
H1705       H  0.87902157  0.37868186  0.32348533     0.13800
C1706       C  0.84612138  0.34497477  0.22245474    -0.07000
C1707       C  0.85578675  0.32135317  0.23762389    -0.18100
C1708       C  0.85614257  0.32012045  0.26908250     0.10200
C1709       C  0.84820927  0.34362568  0.28604548    -0.06900
C1710       C  0.83908588  0.36755804  0.27086315    -0.18200
C1711       C  0.83752431  0.36838171  0.23942311     0.10200
S1712       S  0.86843388  0.28883458  0.28682899    -0.33100
S1713       S  0.82458880  0.40001259  0.22261972    -0.33100
H1714       H  0.81395954  0.38825710  0.19618062     0.28200
H1715       H  0.86619104  0.27163430  0.26155757     0.28200
H1716       H  0.86437441  0.30423347  0.22482896     0.18800
H1717       H  0.83262691  0.38563808  0.28368389     0.18800
C1718       C  0.84988568  0.21991616  0.15153239    -0.07000
C1719       C  0.85403367  0.23376808  0.12385060    -0.18100
C1720       C  0.85392886  0.26287350  0.12170823     0.10200
C1721       C  0.84902238  0.27897555  0.14796629    -0.06900
C1722       C  0.84444470  0.26487030  0.17532851    -0.18200
C1723       C  0.84602681  0.23610680  0.17760815     0.10200
S1724       S  0.85897345  0.27726677  0.08448661    -0.33100
S1725       S  0.84645463  0.22213555  0.21503175    -0.33100
H1726       H  0.87135636  0.20573863  0.20855373     0.28200
H1727       H  0.84092659  0.30027624  0.08913411     0.28200
H1728       H  0.85685456  0.22179311  0.10350026     0.18800
H1729       H  0.84066062  0.27624559  0.19568838     0.18800
C1730       C  0.85378922  0.15958236  0.28777094    -0.07000
C1731       C  0.82594766  0.16159997  0.27478510    -0.18100
C1732       C  0.82234600  0.15878468  0.24389015     0.10200
C1733       C  0.84740351  0.15386524  0.22474030    -0.06900
C1734       C  0.87540898  0.15218602  0.23808476    -0.18200
C1735       C  0.87890539  0.15530785  0.26902773     0.10200
S1736       S  0.78478659  0.16069250  0.23160718    -0.33100
S1737       S  0.91621924  0.15540578  0.28269581    -0.33100
H1738       H  0.91078330  0.17418784  0.30608716     0.28200
H1739       H  0.78943520  0.14014180  0.21048771     0.28200
H1740       H  0.80646744  0.16465830  0.28903082     0.18800
H1741       H  0.89519361  0.14981298  0.22418279     0.18800
C1742       C  0.86156409  0.22568769  0.36616035    -0.07000
C1743       C  0.83759984  0.23735784  0.38175823    -0.18100
C1744       C  0.83321574  0.26587554  0.38125047     0.10200
C1745       C  0.85459870  0.28321021  0.36707920    -0.06900
C1746       C  0.88076747  0.27166829  0.35532744    -0.18200
C1747       C  0.88413238  0.24294646  0.35393757     0.10200
S1748       S  0.79965750  0.27872074  0.39821932    -0.33100
S1749       S  0.91633196  0.22975109  0.33435987    -0.33100
H1750       H  0.91897192  0.20574493  0.35198100     0.28200
H1751       H  0.78930186  0.28927241  0.37100510     0.28200
H1752       H  0.82101254  0.22398636  0.39244475     0.18800
H1753       H  0.89779897  0.28505785  0.34544121     0.18800
C1754       C  0.71818055  0.15215673  0.13838304    -0.07000
C1755       C  0.73070429  0.13098898  0.15535285    -0.18100
C1756       C  0.76145210  0.12879231  0.15744380     0.10200
C1757       C  0.77975122  0.15009519  0.14487739    -0.06900
C1758       C  0.76723771  0.17013243  0.12630255    -0.18200
C1759       C  0.73677497  0.17028089  0.12145736     0.10200
S1760       S  0.77512232  0.09771022  0.17508527    -0.33100
S1761       S  0.72342274  0.19306683  0.09251629    -0.33100
H1762       H  0.69658124  0.17914492  0.08747723     0.28200
H1763       H  0.80496643  0.10540855  0.17715709     0.28200
H1764       H  0.71640573  0.11590030  0.16672966     0.18800
H1765       H  0.78144499  0.18518259  0.11474554     0.18800
C1766       C  0.65114622  0.22471990  0.13884242    -0.07000
C1767       C  0.62411014  0.23792942  0.13311665    -0.18100
C1768       C  0.62121898  0.26674007  0.13395144     0.10200
C1769       C  0.64623660  0.28353376  0.13980773    -0.06900
C1770       C  0.67336562  0.27062939  0.14477582    -0.18200
C1771       C  0.67617597  0.24176016  0.14523823     0.10200
S1772       S  0.58444839  0.28005196  0.12915933    -0.33100
S1773       S  0.71207934  0.22850347  0.15480302    -0.33100
H1774       H  0.72863712  0.25319177  0.15125735     0.28200
H1775       H  0.58656792  0.30010853  0.15170624     0.28200
H1776       H  0.60432132  0.22566746  0.12946234     0.18800
H1777       H  0.69266123  0.28340828  0.14885691     0.18800
C1778       C  0.71549589  0.35023096  0.15028629    -0.07000
C1779       C  0.73107464  0.34662016  0.12302692    -0.18100
C1780       C  0.76199482  0.34495105  0.12206104     0.10200
C1781       C  0.77802775  0.34718937  0.14883538    -0.06900
C1782       C  0.76239631  0.35066825  0.17610629    -0.18200
C1783       C  0.73148101  0.35280884  0.17697659     0.10200
S1784       S  0.77949348  0.33752919  0.08648930    -0.33100
S1785       S  0.71386623  0.36086622  0.21234614    -0.33100
H1786       H  0.69370386  0.37946986  0.19983802     0.28200
H1787       H  0.79528561  0.31544299  0.09871533     0.28200
H1788       H  0.71897616  0.34420944  0.10243800     0.18800
H1789       H  0.77440097  0.35257717  0.19679921     0.18800
C1790       C  0.64042860  0.34758166  0.28120029    -0.07000
C1791       C  0.63842337  0.32229879  0.26606231    -0.18100
C1792       C  0.63642327  0.32136811  0.23482427     0.10200
C1793       C  0.63709967  0.34627368  0.21790771    -0.06900
C1794       C  0.63820266  0.37158272  0.23313339    -0.18200
C1795       C  0.64031734  0.37256978  0.26434197     0.10200
S1796       S  0.63148421  0.28778988  0.21828905    -0.33100
S1797       S  0.64504348  0.40642515  0.28043485    -0.33100
H1798       H  0.66440248  0.39790275  0.30276801     0.28200
H1799       H  0.61199381  0.29735491  0.19655115     0.28200
H1800       H  0.63777504  0.30305910  0.27874538     0.18800
H1801       H  0.63926396  0.39081264  0.22046305     0.18800
C1802       C  0.71475422  0.34733165  0.35197529    -0.07000
C1803       C  0.72804389  0.34905426  0.38013754    -0.18100
C1804       C  0.75877858  0.34821940  0.38306553     0.10200
C1805       C  0.77722868  0.34590745  0.35710207    -0.06900
C1806       C  0.76410746  0.34385104  0.32901826    -0.18200
C1807       C  0.73337488  0.34489155  0.32609126     0.10200
S1808       S  0.77224605  0.34893763  0.42083887    -0.33100
S1809       S  0.72009740  0.34507115  0.28842121    -0.33100
H1810       H  0.70034887  0.36666739  0.29410100     0.28200
H1811       H  0.79838406  0.33435878  0.41497510     0.28200
H1812       H  0.71431283  0.35010626  0.40034882     0.18800
H1813       H  0.77801882  0.34248734  0.30893304     0.18800
C1814       C  0.65037186  0.15400963  0.27342295    -0.07000
C1815       C  0.64483800  0.17913929  0.25882760    -0.18100
C1816       C  0.64151774  0.18034690  0.22778416     0.10200
C1817       C  0.64508579  0.15617083  0.21043815    -0.06900
C1818       C  0.65048593  0.13093215  0.22491540    -0.18200
C1819       C  0.65327696  0.12961194  0.25613340     0.10200
S1820       S  0.63111757  0.21306596  0.21189855    -0.33100
S1821       S  0.66283451  0.09674351  0.27223632    -0.33100
H1822       H  0.68402947  0.10865056  0.29086529     0.28200
H1823       H  0.61217941  0.20132495  0.19066081     0.28200
H1824       H  0.64215844  0.19791345  0.27179731     0.18800
H1825       H  0.65379842  0.11237412  0.21170075     0.18800
C1826       C  0.72080432  0.15885086  0.34830874    -0.07000
C1827       C  0.73491694  0.18461876  0.34430463    -0.18100
C1828       C  0.76544913  0.18825210  0.34825129     0.10200
C1829       C  0.78307965  0.16510989  0.35594965    -0.06900
C1830       C  0.76892514  0.13909662  0.35889457    -0.18200
C1831       C  0.73849006  0.13558532  0.35505802     0.10200
S1832       S  0.78012313  0.22299123  0.34422291    -0.33100
S1833       S  0.72479951  0.10035121  0.35757245    -0.33100
H1834       H  0.70229587  0.10352983  0.33680171     0.28200
H1835       H  0.75319002  0.23717957  0.34176982     0.28200
H1836       H  0.72185069  0.20234348  0.33848061     0.18800
H1837       H  0.78186315  0.12077794  0.36321056     0.18800
C1838       C  0.64559639  0.22164405  0.34590346    -0.07000
C1839       C  0.66915349  0.23604338  0.35886298    -0.18100
C1840       C  0.66843912  0.26482149  0.36265881     0.10200
C1841       C  0.64360043  0.27993338  0.35328290    -0.06900
C1842       C  0.61971156  0.26552875  0.34083270    -0.18200
C1843       C  0.62046674  0.23665023  0.33688813     0.10200
S1844       S  0.69961206  0.28088716  0.38041631    -0.33100
S1845       S  0.58887500  0.22054007  0.31969047    -0.33100
H1846       H  0.60292676  0.19641530  0.30962521     0.28200
H1847       H  0.68285320  0.30122703  0.39537055     0.28200
H1848       H  0.68784574  0.22468549  0.36715401     0.18800
H1849       H  0.60073382  0.27699195  0.33321641     0.18800
C1850       C  0.58322513  0.08422726  0.41274684    -0.07000
C1851       C  0.56944969  0.10667495  0.39892176    -0.18100
C1852       C  0.58558009  0.12556588  0.38068640     0.10200
C1853       C  0.61692280  0.12277460  0.37705813    -0.06900
C1854       C  0.62979490  0.09871682  0.38913846    -0.18200
C1855       C  0.61358299  0.07975891  0.40678341     0.10200
S1856       S  0.56407721  0.15216935  0.36295485    -0.33100
S1857       S  0.63281687  0.04932854  0.41923172    -0.33100
H1858       H  0.60901580  0.03098649  0.41432201     0.28200
H1859       H  0.57922425  0.15160174  0.33517206     0.28200
H1860       H  0.54581758  0.10952945  0.40237128     0.18800
H1861       H  0.65254967  0.09354226  0.38395276     0.18800
C1862       C  0.61442481  0.38162097  0.11316790    -0.07000
C1863       C  0.62800951  0.40025855  0.09245943    -0.18100
C1864       C  0.61181008  0.41962417  0.07647028     0.10200
C1865       C  0.58064068  0.42014758  0.07975091    -0.06900
C1866       C  0.56657917  0.40056512  0.09868212    -0.18200
C1867       C  0.58286775  0.38115538  0.11503469     0.10200
S1868       S  0.63291824  0.44407312  0.05368836    -0.33100
S1869       S  0.56265356  0.35599284  0.13796650    -0.33100
H1870       H  0.53387260  0.36408665  0.13048096     0.28200
H1871       H  0.61894648  0.46731861  0.06642439     0.28200
H1872       H  0.65151980  0.40045088  0.08817417     0.18800
H1873       H  0.54262805  0.40044468  0.10056903     0.18800
C1874       C  0.91799714  0.08599414  0.08412159    -0.07000
C1875       C  0.89977370  0.07519936  0.10714557    -0.18100
C1876       C  0.88224790  0.09249245  0.12530882     0.10200
C1877       C  0.88375175  0.12182061  0.12118060    -0.06900
C1878       C  0.90221677  0.13222897  0.09753504    -0.18200
C1879       C  0.91919790  0.11474255  0.07919695     0.10200
S1880       S  0.85730778  0.07623973  0.15268251    -0.33100
S1881       S  0.94121058  0.13036185  0.04917061    -0.33100
H1882       H  0.96370993  0.11041587  0.04860018     0.28200
H1883       H  0.86283058  0.04850940  0.14497828     0.28200
H1884       H  0.89882228  0.05294553  0.11035754     0.18800
H1885       H  0.90319289  0.15394791  0.09205393     0.18800
C1886       C  0.61358877  0.13010033  0.10531542    -0.07000
C1887       C  0.62454978  0.11743841  0.07897200    -0.18100
C1888       C  0.60697501  0.09977739  0.06198685     0.10200
C1889       C  0.57785364  0.09291483  0.07216889    -0.06900
C1890       C  0.56560100  0.10830981  0.09600135    -0.18200
C1891       C  0.58264146  0.12793745  0.11148303     0.10200
S1892       S  0.62310988  0.08777742  0.02711248    -0.33100
S1893       S  0.56421745  0.15053952  0.13808486    -0.33100
H1894       H  0.53505933  0.14411778  0.12979164     0.28200
H1895       H  0.59813493  0.09503969  0.01049657     0.28200
H1896       H  0.64670650  0.12192266  0.07054902     0.18800
H1897       H  0.54259857  0.10508045  0.10255004     0.18800
C1898       C  0.87929024  0.38223638  0.38729453    -0.07000
C1899       C  0.90881596  0.38652944  0.37725959    -0.18100
C1900       C  0.92867326  0.40307351  0.39303136     0.10200
C1901       C  0.91857072  0.41762887  0.41875695    -0.06900
C1902       C  0.88995396  0.41178964  0.43007456    -0.18200
C1903       C  0.87115132  0.39307485  0.41594517     0.10200
S1904       S  0.96684516  0.40192213  0.38048060    -0.33100
S1905       S  0.83946912  0.38186036  0.43820687    -0.33100
H1906       H  0.84410598  0.35365161  0.43227686     0.28200
H1907       H  0.97793173  0.40029244  0.40971897     0.28200
H1908       H  0.91716787  0.37567487  0.35766887     0.18800
H1909       H  0.88243531  0.42098048  0.45100280     0.18800
C1910       C  0.88227583  0.12554055  0.38995538    -0.07000
C1911       C  0.91237088  0.13156214  0.39558001    -0.18100
C1912       C  0.93022277  0.11332882  0.41133886     0.10200
C1913       C  0.91824871  0.08788713  0.42157803    -0.06900
C1914       C  0.88902910  0.08084786  0.41467293    -0.18200
C1915       C  0.87148617  0.09855258  0.39772628     0.10200
S1916       S  0.96801531  0.12397037  0.41766381    -0.33100
S1917       S  0.83734923  0.08359719  0.38464520    -0.33100
H1918       H  0.83949155  0.09541605  0.35579520     0.28200
H1919       H  0.97037330  0.11074065  0.44568941     0.28200
H1920       H  0.92255526  0.15056868  0.38727645     0.18800
H1921       H  0.88039237  0.06054359  0.42096707     0.18800
C1922       C  0.61238624  0.37901016  0.38565791    -0.07000
C1923       C  0.59079833  0.36979044  0.40703286    -0.18100
C1924       C  0.57315432  0.38845645  0.42342552     0.10200
C1925       C  0.57670756  0.41714623  0.41855911    -0.06900
C1926       C  0.59807678  0.42665202  0.39783394    -0.18200
C1927       C  0.61600381  0.40824641  0.38157809     0.10200
S1928       S  0.54701761  0.37438390  0.45085058    -0.33100
S1929       S  0.64405298  0.42321740  0.35668431    -0.33100
H1930       H  0.63191731  0.44989674  0.35474824     0.28200
H1931       H  0.52655579  0.39611784  0.44966468     0.28200
H1932       H  0.58707913  0.34805297  0.41134993     0.18800
H1933       H  0.60122279  0.44880309  0.39497778     0.18800
C1934       C  0.91919832  0.41538183  0.08372953    -0.07000
C1935       C  0.89664423  0.39983693  0.07032655    -0.18100
C1936       C  0.87930501  0.38037112  0.08674040     0.10200
C1937       C  0.88338499  0.37700861  0.11813884    -0.06900
C1938       C  0.90789930  0.39080453  0.13061434    -0.18200
C1939       C  0.92569938  0.40950978  0.11401374     0.10200
S1940       S  0.85260536  0.35978352  0.06671969    -0.33100
S1941       S  0.95618861  0.42511688  0.13336920    -0.33100
H1942       H  0.97733772  0.41587156  0.11207191     0.28200
H1943       H  0.85626218  0.37271888  0.03849379     0.28200
H1944       H  0.89256721  0.40286939  0.04672461     0.18800
H1945       H  0.91433807  0.38672152  0.15333251     0.18800
C1946       C  0.93437998  0.43729319  0.56585722     0.41600
N1947       N  0.96254620  0.47221442  0.55410241     0.00500
C1948       C  0.96329220  0.05505632  0.92687392    -0.07400
H1949       H  0.97585750  0.45217375  0.90383235     0.06000
C1950       C  0.57124799  0.45145475  0.96332012    -0.07700
Co1951     Co  0.94399661  0.50233272  0.99904265     0.74200
N1952       N  0.96761887  0.47372427  0.94476505    -0.26900
Co1953     Co  0.50082541  0.50352690  0.94456146     0.74100
C1954       C  0.56057440  0.43763102  0.93660982     0.41700
N1955       N  0.54966603  0.47310189  0.53393196     0.00100
N1956       N  0.53330598  0.47285519  0.94590368     0.00200
N1957       N  0.92602275  0.05246526  0.96170424    -0.47800
H1958       H  0.90536344  0.44486711  0.52452669     0.06000
N1959       N  0.94646724  0.47237939  0.96558702     0.00500
N1960       N  0.53363249  0.03344934  0.94547680     0.00200
C1961       C  0.56537846  0.06477103  0.93235727     0.41800
N1962       N  0.52860882  0.47331335  0.55491834    -0.26400
C1963       C  0.92339487  0.05271958  0.53757482    -0.07300
N1964       N  0.95804026  0.45242869  0.57445162    -0.47500
N1965       N  0.54002965  0.05205713  0.92425857    -0.47700
C1966       C  0.93369320  0.06626920  0.56465402     0.41600
N1967       N  0.94591451  0.03294254  0.96590807     0.00500
N1968       N  0.52887689  0.03442124  0.55387727    -0.26400
N1969       N  0.94298319  0.47142688  0.53255304    -0.26900
N1970       N  0.55029243  0.03392944  0.53324695     0.00100
H1971       H  0.51977603  0.06206354  0.59082488     0.06000
H1972       H  0.59398238  0.05576859  0.97338019     0.06000
N1973       N  0.96774926  0.03379911  0.94565987    -0.26900
N1974       N  0.55283790  0.47279590  0.96750631    -0.26600
N1975       N  0.96292340  0.03308029  0.55359297     0.00500
C1976       C  0.93596848  0.43969848  0.93478445     0.41900
C1977       C  0.53399725  0.45318658  0.57492588    -0.07800
N1978       N  0.55344826  0.03293500  0.96675182    -0.26600
H1979       H  0.59000261  0.44650996  0.97699137     0.06000
N1980       N  0.92691507  0.45247646  0.96035451    -0.47800
H1981       H  0.52116107  0.44897556  0.59525348     0.06000
C1982       C  0.56057381  0.06991218  0.55941377     0.41700
C1983       C  0.92427346  0.45007125  0.53793990    -0.07300
Co1984     Co  0.99602105  0.00352532  0.55508467     0.73800
N1985       N  0.56973056  0.45388394  0.53855801    -0.47500
C1986       C  0.93581438  0.06751201  0.93784948     0.42000
N1987       N  0.95783298  0.05263353  0.57373988    -0.47500
Co1988     Co  0.55226393  0.00347092  0.50064085     0.73900
C1989       C  0.57423315  0.05223347  0.96062411    -0.07800
C1990       C  0.96274275  0.45431764  0.92418880    -0.07400
N1991       N  0.94300318  0.03249287  0.53235788    -0.26900
N1992       N  0.53750019  0.45241273  0.92653067    -0.47700
H1993       H  0.97691396  0.06038036  0.90736107     0.06000
C1994       C  0.53345386  0.05647582  0.57160140    -0.07800
Cl1995     Cl  0.49821283  0.00316541  0.49983653    -0.50800
C1996       C  0.56147957  0.44050233  0.56404889     0.41700
H1997       H  0.90400795  0.05691709  0.52452876     0.05900
N1998       N  0.56964266  0.05440092  0.53597616    -0.47500
C1999       C  0.63631846  0.14238541  0.85818690     0.85600
C2000       C  0.66981907  0.14139119  0.86473710    -0.54600
C2001       C  0.68742904  0.15751454  0.84632961     0.08500
C2002       C  0.66943180  0.17529920  0.82445479     0.24100
C2003       C  0.62946837  0.17339816  0.86218118    -0.55300
C2004       C  0.64652354  0.19065356  0.84439573     0.08600
C2005       C  0.63428648  0.13684910  0.82434449    -0.54900
C2006       C  0.65130671  0.15412687  0.80667421     0.09200
H2007       H  0.67894144  0.13050304  0.88366510     0.13700
H2008       H  0.68303998  0.18930448  0.80976853    -0.00500
H2009       H  0.61351309  0.18122966  0.87854558     0.14000
H2010       H  0.61973796  0.12113786  0.81514841     0.13800
C2011       C  0.63052230  0.35838744  0.86602849     0.85600
C2012       C  0.62490226  0.36231604  0.83241089    -0.54600
C2013       C  0.64241078  0.34672756  0.81392187     0.08500
C2014       C  0.66362570  0.32763012  0.83081647     0.19500
C2015       C  0.62623541  0.32663414  0.87107906    -0.55300
C2016       C  0.64378565  0.31072499  0.85267152     0.08600
C2017       C  0.66412231  0.36281978  0.86945902    -0.54900
C2018       C  0.68158060  0.34717466  0.85077095     0.09200
H2019       H  0.60817881  0.37621697  0.82400586     0.13700
H2020       H  0.67733698  0.31415805  0.81610283    -0.00500
H2021       H  0.61137402  0.31703134  0.88751187     0.14000
H2022       H  0.67326147  0.37729587  0.88545847     0.13800
C2023       C  0.63347168  0.36302896  0.63251033     0.85600
C2024       C  0.66742520  0.36837526  0.63195015    -0.54600
C2025       C  0.68285242  0.35088848  0.64969044     0.08500
C2026       C  0.66329481  0.32964518  0.66669437     0.19500
C2027       C  0.63056694  0.33221759  0.62411894    -0.55300
C2028       C  0.64581732  0.31461300  0.64221847     0.08600
C2029       C  0.62499809  0.36453321  0.66620053    -0.54900
C2030       C  0.64017723  0.34672200  0.68401893     0.09200
H2031       H  0.67924204  0.38430315  0.61933870     0.13700
H2032       H  0.67623542  0.31584896  0.68133741    -0.00500
H2033       H  0.61812805  0.32523506  0.60497871     0.14000
H2034       H  0.60861338  0.37877692  0.67520891     0.13800
C2035       C  0.63465188  0.14683014  0.62542209     0.85600
C2036       C  0.62879242  0.14240559  0.65934609    -0.54600
C2037       C  0.64652924  0.15798215  0.67708885     0.08500
C2038       C  0.66956392  0.17564653  0.65962098     0.19500
C2039       C  0.63345589  0.17836893  0.62028642    -0.55300
C2040       C  0.65172389  0.19384649  0.63814464     0.08600
C2041       C  0.66777647  0.13966220  0.62164134    -0.54900
C2042       C  0.68587243  0.15505499  0.63906559     0.09200
H2043       H  0.61245443  0.12790067  0.66863802     0.13700
H2044       H  0.68410291  0.18671279  0.67522873    -0.00500
H2045       H  0.61929256  0.18745033  0.60357960     0.14000
H2046       H  0.67664422  0.12353742  0.60727903     0.13800
C2047       C  0.86458126  0.14734363  0.87295747     0.85600
C2048       C  0.86920055  0.14284632  0.83910723    -0.54600
C2049       C  0.85523094  0.16158935  0.82155616     0.08500
C2050       C  0.83756847  0.18318023  0.83935283     0.19500
C2051       C  0.87372781  0.17764709  0.87855625    -0.55300
C2052       C  0.85993372  0.19623059  0.86081157     0.08600
C2053       C  0.83059835  0.14817875  0.87816550    -0.54900
C2054       C  0.81599633  0.16616032  0.85966970     0.09200
H2055       H  0.88155644  0.12553202  0.82989440     0.13700
H2056       H  0.82719535  0.19836253  0.82431880    -0.00500
H2057       H  0.88805727  0.18422269  0.89649022     0.14000
H2058       H  0.81893235  0.13574711  0.89501621     0.13800
C2059       C  0.86385165  0.14072996  0.64059664     0.85600
C2060       C  0.83124241  0.13576735  0.63329614    -0.54600
C2061       C  0.81192735  0.15092562  0.64999927     0.08500
C2062       C  0.82676559  0.17072367  0.67227779     0.19500
C2063       C  0.86826490  0.17248949  0.63664122    -0.55300
C2064       C  0.84895422  0.18817185  0.65322028     0.08600
C2065       C  0.86571115  0.13644879  0.67483358    -0.54900
C2066       C  0.84626492  0.15195740  0.69178722     0.09200
H2067       H  0.82395950  0.12139634  0.61620710     0.13700
H2068       H  0.81075850  0.18382422  0.68469870    -0.00500
H2069       H  0.88529377  0.18248459  0.62291814     0.14000
H2070       H  0.88156007  0.12249193  0.68468603     0.13800
C2071       C  0.86318855  0.35750337  0.63826527     0.85600
C2072       C  0.86597819  0.36072253  0.67272935    -0.54600
C2073       C  0.84732016  0.34408130  0.68935765     0.08500
C2074       C  0.82719889  0.32564069  0.67026248     0.19500
C2075       C  0.86729268  0.32620319  0.63279749    -0.55300
C2076       C  0.84815382  0.30935335  0.64903999     0.08600
C2077       C  0.82993006  0.36285165  0.63334442    -0.54900
C2078       C  0.81115787  0.34586472  0.64963378     0.09200
H2079       H  0.88025388  0.37541266  0.68379231     0.13700
H2080       H  0.81163764  0.31247146  0.68386265    -0.00500
H2081       H  0.88446799  0.31825958  0.61785044     0.14000
H2082       H  0.82190899  0.37908712  0.61873826     0.13800
C2083       C  0.85947672  0.36295820  0.86977572     0.85600
C2084       C  0.82561996  0.36637721  0.87261191    -0.54600
C2085       C  0.80979723  0.34641706  0.85820287     0.08500
C2086       C  0.82918455  0.32578001  0.84059583     0.19500
C2087       C  0.86570341  0.33299939  0.87914390    -0.55300
C2088       C  0.84983693  0.31369190  0.86413847     0.08600
C2089       C  0.86484158  0.36362109  0.83528877    -0.54900
C2090       C  0.84909553  0.34409038  0.81997793     0.09200
H2091       H  0.81486600  0.38385089  0.88326407     0.13700
H2092       H  0.81639176  0.30986024  0.82829413    -0.00500
H2093       H  0.88178524  0.32749762  0.89590800     0.14000
H2094       H  0.87884288  0.37891501  0.82378747     0.13800
C2095       C  0.84637213  0.34439771  0.72282042    -0.07000
C2096       C  0.85560930  0.32075533  0.73824999    -0.18100
C2097       C  0.85580148  0.31971205  0.76973527     0.10200
C2098       C  0.84826443  0.34346245  0.78649824    -0.06900
C2099       C  0.83962594  0.36742205  0.77105421    -0.18200
C2100       C  0.83814579  0.36803852  0.73959707     0.10200
S2101       S  0.86742248  0.28832008  0.78773643    -0.33100
S2102       S  0.82580815  0.39972991  0.72247922    -0.33100
H2103       H  0.81431586  0.38771264  0.69655577     0.28200
H2104       H  0.86439476  0.27094317  0.76270368     0.28200
H2105       H  0.86403283  0.30344799  0.72565790     0.18800
H2106       H  0.83345304  0.38569935  0.78368375     0.18800
C2107       C  0.84939113  0.21919860  0.65226300    -0.07000
C2108       C  0.85266724  0.23288369  0.62441389    -0.18100
C2109       C  0.85254805  0.26196364  0.62210365     0.10200
C2110       C  0.84830694  0.27821682  0.64837298    -0.06900
C2111       C  0.84434058  0.26424094  0.67590479    -0.18200
C2112       C  0.84616240  0.23548342  0.67832278     0.10200
S2113       S  0.85684024  0.27608013  0.58469173    -0.33100
S2114       S  0.84768599  0.22156229  0.71572179    -0.33100
H2115       H  0.87224647  0.20493374  0.70855600     0.28200
H2116       H  0.83982864  0.29963944  0.58980077     0.28200
H2117       H  0.85495550  0.22078044  0.60408674     0.18800
H2118       H  0.84090680  0.27573491  0.69623768     0.18800
C2119       C  0.85388130  0.15944824  0.78842510    -0.07000
C2120       C  0.82601762  0.16122867  0.77546668    -0.18100
C2121       C  0.82236575  0.15802903  0.74464015     0.10200
C2122       C  0.84742027  0.15309992  0.72550244    -0.06900
C2123       C  0.87545297  0.15156829  0.73880850    -0.18200
C2124       C  0.87898751  0.15495704  0.76971321     0.10200
S2125       S  0.78472762  0.15934403  0.73247654    -0.33100
S2126       S  0.91632222  0.15508985  0.78333318    -0.33100
H2127       H  0.91095661  0.17413109  0.80649028     0.28200
H2128       H  0.78974850  0.13926845  0.71091319     0.28200
H2129       H  0.80654276  0.16434119  0.78970331     0.18800
H2130       H  0.89521599  0.14910524  0.72489404     0.18800
C2131       C  0.86127994  0.22615392  0.86646758    -0.07000
C2132       C  0.83740431  0.23777876  0.88225257    -0.18100
C2133       C  0.83306731  0.26631545  0.88201098     0.10200
C2134       C  0.85450451  0.28375647  0.86807938    -0.06900
C2135       C  0.88059150  0.27224389  0.85610990    -0.18200
C2136       C  0.88381842  0.24350926  0.85427449     0.10200
S2137       S  0.79942980  0.27904913  0.89890315    -0.33100
S2138       S  0.91574670  0.23050045  0.83408954    -0.33100
H2139       H  0.91841604  0.20619888  0.85121635     0.28200
H2140       H  0.78895724  0.28926464  0.87157898     0.28200
H2141       H  0.82084111  0.22436585  0.89291038     0.18800
H2142       H  0.89758344  0.28568641  0.84623344     0.18800
C2143       C  0.71822032  0.15177495  0.63837823    -0.07000
C2144       C  0.73050640  0.13060548  0.65553750    -0.18100
C2145       C  0.76123399  0.12826994  0.65784792     0.10200
C2146       C  0.77973221  0.14949038  0.64539052    -0.06900
C2147       C  0.76744728  0.16945026  0.62654615    -0.18200
C2148       C  0.73704025  0.16960721  0.62136129     0.10200
S2149       S  0.77461420  0.09711126  0.67556025    -0.33100
S2150       S  0.72406800  0.19181804  0.59171693    -0.33100
H2151       H  0.69710504  0.17802760  0.58689110     0.28200
H2152       H  0.80455418  0.10452333  0.67741367     0.28200
H2153       H  0.71604706  0.11563170  0.66688644     0.18800
H2154       H  0.78180432  0.18436629  0.61497424     0.18800
C2155       C  0.65174758  0.22507826  0.63794551    -0.07000
C2156       C  0.62474442  0.23831723  0.63218628    -0.18100
C2157       C  0.62191951  0.26712843  0.63287222     0.10200
C2158       C  0.64694407  0.28392287  0.63869430    -0.06900
C2159       C  0.67409535  0.27099746  0.64356212    -0.18200
C2160       C  0.67686350  0.24209536  0.64401968     0.10200
S2161       S  0.58517022  0.28044960  0.62809808    -0.33100
S2162       S  0.71281762  0.22866439  0.65304653    -0.33100
H2163       H  0.72933981  0.25340586  0.64982325     0.28200
H2164       H  0.58720424  0.29997776  0.65119431     0.28200
H2165       H  0.60490866  0.22608580  0.62866526     0.18800
H2166       H  0.69340540  0.28378094  0.64758890     0.18800
C2167       C  0.71573014  0.35110499  0.65015954    -0.07000
C2168       C  0.73148607  0.34863509  0.62285490    -0.18100
C2169       C  0.76237571  0.34666616  0.62201335     0.10200
C2170       C  0.77828403  0.34762722  0.64898514    -0.06900
C2171       C  0.76247316  0.35024884  0.67628889    -0.18200
C2172       C  0.73155411  0.35247775  0.67705127     0.10200
S2173       S  0.77983081  0.34024220  0.58619208    -0.33100
S2174       S  0.71368015  0.35892952  0.71267389    -0.33100
H2175       H  0.69399109  0.37844623  0.70101914     0.28200
H2176       H  0.79594967  0.31810943  0.59776512     0.28200
H2177       H  0.71952725  0.34712669  0.60208245     0.18800
H2178       H  0.77433218  0.35129864  0.69714255     0.18800
C2179       C  0.64056903  0.34750875  0.78068005    -0.07000
C2180       C  0.63907104  0.32221983  0.76546821    -0.18100
C2181       C  0.63708776  0.32128973  0.73421422     0.10200
C2182       C  0.63719486  0.34620283  0.71733778    -0.06900
C2183       C  0.63779825  0.37150527  0.73261815    -0.18200
C2184       C  0.63996870  0.37250194  0.76382970     0.10200
S2185       S  0.63295880  0.28766457  0.71757078    -0.33100
S2186       S  0.64424327  0.40642362  0.77988976    -0.33100
H2187       H  0.66370390  0.39812821  0.80222021     0.28200
H2188       H  0.61323976  0.29684090  0.69584357     0.28200
H2189       H  0.63881328  0.30295532  0.77810205     0.18800
H2190       H  0.63848588  0.39076194  0.71998213     0.18800
C2191       C  0.71463090  0.34758078  0.85193120    -0.07000
C2192       C  0.72777726  0.34905636  0.88018202    -0.18100
C2193       C  0.75850081  0.34820546  0.88321786     0.10200
C2194       C  0.77701766  0.34610828  0.85727825    -0.06900
C2195       C  0.76403365  0.34427279  0.82912775    -0.18200
C2196       C  0.73333469  0.34538741  0.82611059     0.10200
S2197       S  0.77188245  0.34870200  0.92104514    -0.33100
S2198       S  0.72014003  0.34612840  0.78844920    -0.33100
H2199       H  0.70083162  0.36803535  0.79435513     0.28200
H2200       H  0.79844198  0.33481801  0.91510359     0.28200
H2201       H  0.71394696  0.34996288  0.90033651     0.18800
H2202       H  0.77802911  0.34309015  0.80908366     0.18800
C2203       C  0.65027888  0.15422104  0.77336801    -0.07000
C2204       C  0.64438008  0.17936617  0.75891232    -0.18100
C2205       C  0.64127474  0.18074471  0.72780942     0.10200
C2206       C  0.64526526  0.15672143  0.71031467    -0.06900
C2207       C  0.65095232  0.13147171  0.72466091    -0.18200
C2208       C  0.65371072  0.13000115  0.75588339     0.10200
S2209       S  0.63075084  0.21346455  0.71197003    -0.33100
S2210       S  0.66400622  0.09722669  0.77173615    -0.33100
H2211       H  0.68461138  0.10938819  0.79086057     0.28200
H2212       H  0.61263936  0.20180356  0.68996507     0.28200
H2213       H  0.64131159  0.19800567  0.77203085     0.18800
H2214       H  0.65456133  0.11303189  0.71132604     0.18800
C2215       C  0.72048907  0.15881644  0.84859238    -0.07000
C2216       C  0.73466946  0.18454800  0.84450130    -0.18100
C2217       C  0.76516823  0.18820004  0.84870012     0.10200
C2218       C  0.78285562  0.16509122  0.85627806    -0.06900
C2219       C  0.76869213  0.13906724  0.85922011    -0.18200
C2220       C  0.73819815  0.13556338  0.85547016     0.10200
S2221       S  0.77970954  0.22298400  0.84516427    -0.33100
S2222       S  0.72444723  0.10035701  0.85829976    -0.33100
H2223       H  0.70215719  0.10333370  0.83723664     0.28200
H2224       H  0.75261866  0.23710695  0.84743577     0.28200
H2225       H  0.72173558  0.20227755  0.83839433     0.18800
H2226       H  0.78165245  0.12077078  0.86358636     0.18800
C2227       C  0.64487729  0.22139085  0.84637496    -0.07000
C2228       C  0.66885623  0.23572103  0.85863263    -0.18100
C2229       C  0.66860869  0.26456385  0.86198420     0.10200
C2230       C  0.64371334  0.27984226  0.85301769    -0.06900
C2231       C  0.61933278  0.26549215  0.84144354    -0.18200
C2232       C  0.61968218  0.23655420  0.83783466     0.10200
S2233       S  0.70046131  0.28044616  0.87868357    -0.33100
S2234       S  0.58753209  0.22055930  0.82160744    -0.33100
H2235       H  0.60164160  0.19693407  0.81023166     0.28200
H2236       H  0.68426884  0.30094970  0.89399563     0.28200
H2237       H  0.68759087  0.22427127  0.86665586     0.18800
H2238       H  0.60026087  0.27703955  0.83421809     0.18800
C2239       C  0.58321279  0.08336077  0.91248690    -0.07000
C2240       C  0.56925990  0.10547849  0.89826585    -0.18100
C2241       C  0.58528651  0.12445316  0.88006857     0.10200
C2242       C  0.61669499  0.12204847  0.87676506    -0.06900
C2243       C  0.62979920  0.09825097  0.88922594    -0.18200
C2244       C  0.61370995  0.07925470  0.90695439     0.10200
S2245       S  0.56354687  0.15074546  0.86211293    -0.33100
S2246       S  0.63337712  0.04935268  0.92021033    -0.33100
H2247       H  0.60993748  0.03051970  0.91566908     0.28200
H2248       H  0.57910715  0.15065430  0.83455979     0.28200
H2249       H  0.54555591  0.10805909  0.90144615     0.18800
H2250       H  0.65267373  0.09332002  0.88434859     0.18800
C2251       C  0.61442275  0.38205200  0.61297716    -0.07000
C2252       C  0.62781268  0.40180692  0.59339918    -0.18100
C2253       C  0.61131395  0.42119541  0.57781622     0.10200
C2254       C  0.58009352  0.42045637  0.58008524    -0.06900
C2255       C  0.56627352  0.40003459  0.59807240    -0.18200
C2256       C  0.58285325  0.38077755  0.61430893     0.10200
S2257       S  0.63202317  0.44744202  0.55710882    -0.33100
S2258       S  0.56298212  0.35484866  0.63650292    -0.33100
H2259       H  0.53407399  0.36344047  0.63019091     0.28200
H2260       H  0.61556392  0.46952169  0.56923635     0.28200
H2261       H  0.65138329  0.40307999  0.58987888     0.18800
H2262       H  0.54230098  0.39915193  0.59928524     0.18800
C2263       C  0.91698610  0.08567704  0.58358425    -0.07000
C2264       C  0.89785356  0.07471645  0.60575766    -0.18100
C2265       C  0.88117720  0.09195055  0.62477719     0.10200
C2266       C  0.88396608  0.12132705  0.62198370    -0.06900
C2267       C  0.90404873  0.13191597  0.59981516    -0.18200
C2268       C  0.92012037  0.11455723  0.58050658     0.10200
S2269       S  0.85604658  0.07564410  0.65193026    -0.33100
S2270       S  0.94413234  0.13091788  0.55244496    -0.33100
H2271       H  0.94838329  0.10816475  0.53340508     0.28200
H2272       H  0.86152645  0.04792716  0.64414837     0.28200
H2273       H  0.89582322  0.05240916  0.60788382     0.18800
H2274       H  0.90709946  0.15378548  0.59617970     0.18800
C2275       C  0.61349766  0.13059804  0.60528793    -0.07000
C2276       C  0.62440797  0.11823274  0.57876499    -0.18100
C2277       C  0.60698001  0.10035206  0.56190450     0.10200
C2278       C  0.57789014  0.09337051  0.57214186    -0.06900
C2279       C  0.56560403  0.10865690  0.59602080    -0.18200
C2280       C  0.58259041  0.12821603  0.61161823     0.10200
S2281       S  0.62345787  0.08788479  0.52738834    -0.33100
S2282       S  0.56409678  0.15033691  0.63865288    -0.33100
H2283       H  0.53495784  0.14408725  0.63015239     0.28200
H2284       H  0.59876607  0.09518315  0.51038235     0.28200
H2285       H  0.64651888  0.12291372  0.57030300     0.18800
H2286       H  0.54263823  0.10529190  0.60262682     0.18800
C2287       C  0.87865390  0.38323027  0.88749158    -0.07000
C2288       C  0.90834228  0.38709846  0.87780525    -0.18100
C2289       C  0.92817799  0.40365862  0.89357029     0.10200
C2290       C  0.91794072  0.41869107  0.91890242    -0.06900
C2291       C  0.88901098  0.41356570  0.92974943    -0.18200
C2292       C  0.87015603  0.39483395  0.91569583     0.10200
S2293       S  0.96648419  0.40190429  0.88158353    -0.33100
S2294       S  0.83803051  0.38440630  0.93773122    -0.33100
H2295       H  0.84284960  0.35602998  0.93295752     0.28200
H2296       H  0.97715738  0.40046624  0.91099900     0.28200
H2297       H  0.91682647  0.37584669  0.85854146     0.18800
H2298       H  0.88130108  0.42326299  0.95033444     0.18800
C2299       C  0.88203769  0.12599847  0.89085565    -0.07000
C2300       C  0.91209027  0.13205748  0.89666833    -0.18100
C2301       C  0.92989999  0.11380359  0.91245610     0.10200
C2302       C  0.91796648  0.08826327  0.92239851    -0.06900
C2303       C  0.88876049  0.08124458  0.91547139    -0.18200
C2304       C  0.87122458  0.09899493  0.89859617     0.10200
S2305       S  0.96757313  0.12456240  0.91925984    -0.33100
S2306       S  0.83706362  0.08403340  0.88558415    -0.33100
H2307       H  0.83933287  0.09565192  0.85664691     0.28200
H2308       H  0.97013357  0.11055742  0.94681892     0.28200
H2309       H  0.92228268  0.15110124  0.88848837     0.18800
H2310       H  0.88013515  0.06091066  0.92167155     0.18800
C2311       C  0.61203486  0.37887589  0.88514266    -0.07000
C2312       C  0.59002438  0.36956792  0.90604078    -0.18100
C2313       C  0.57245819  0.38817370  0.92263613     0.10200
C2314       C  0.57682554  0.41690743  0.91875931    -0.06900
C2315       C  0.59848093  0.42647476  0.89838500    -0.18200
C2316       C  0.61592488  0.40813029  0.88152605     0.10200
S2317       S  0.54527954  0.37386808  0.94888166    -0.33100
S2318       S  0.64351258  0.42323766  0.85622384    -0.33100
H2319       H  0.63106992  0.44980719  0.85444630     0.28200
H2320       H  0.52596230  0.39653131  0.94915899     0.28200
H2321       H  0.58577110  0.34781191  0.90966092     0.18800
H2322       H  0.60203844  0.44862459  0.89604334     0.18800
C2323       C  0.91950345  0.41456881  0.58377700    -0.07000
C2324       C  0.89716799  0.39871164  0.57041633    -0.18100
C2325       C  0.88012309  0.37903189  0.58687185     0.10200
C2326       C  0.88408745  0.37589171  0.61831563    -0.06900
C2327       C  0.90843229  0.38998899  0.63075985    -0.18200
C2328       C  0.92611299  0.40875304  0.61405976     0.10200
S2329       S  0.85387653  0.35792176  0.56689022    -0.33100
S2330       S  0.95667176  0.42442340  0.63324771    -0.33100
H2331       H  0.97768719  0.41563574  0.61157688     0.28200
H2332       H  0.85878091  0.36956713  0.53817611     0.28200
H2333       H  0.89301215  0.40168323  0.54682101     0.18800
H2334       H  0.91484890  0.38611024  0.65351985     0.18800
C2335       C  0.93376542  0.93818515  0.06611694     0.41600
N2336       N  0.96287348  0.97239995  0.05423561     0.00500
C2337       C  0.96300718  0.55457329  0.42658643    -0.07400
H2338       H  0.97660199  0.95193428  0.40407478     0.06000
C2339       C  0.57127495  0.95178732  0.46354948    -0.07700
Co2340     Co  0.94415170  0.00225753  0.49898732     0.74200
N2341       N  0.96794982  0.97360602  0.44480517    -0.26900
Co2342     Co  0.50080856  0.00374176  0.44475445     0.74100
C2343       C  0.56087522  0.93816773  0.43662170     0.41700
N2344       N  0.54956362  0.97297857  0.03402413     0.00100
N2345       N  0.53341610  0.97321262  0.44599564     0.00200
N2346       N  0.92543858  0.55184153  0.46109678    -0.47800
H2347       H  0.90487025  0.94638119  0.02487054     0.06000
N2348       N  0.94674527  0.97222202  0.46554890     0.00500
N2349       N  0.53404582  0.53383375  0.44552213     0.00200
C2350       C  0.56571862  0.56542773  0.43287189     0.41800
N2351       N  0.52853743  0.97319950  0.05503999    -0.26400
C2352       C  0.92369422  0.55298879  0.03765403    -0.07300
N2353       N  0.95787753  0.95274099  0.07462921    -0.47500
N2354       N  0.54042688  0.55271233  0.42456763    -0.47700
C2355       C  0.93406156  0.56627405  0.06485886     0.41600
N2356       N  0.94530589  0.53231729  0.46542945     0.00500
N2357       N  0.52911850  0.53432406  0.05353916    -0.26400
N2358       N  0.94322392  0.97203124  0.03275833    -0.26900
N2359       N  0.55054329  0.53381451  0.03293257     0.00100
H2360       H  0.51969721  0.56216908  0.09022529     0.06000
H2361       H  0.59424638  0.55600512  0.47384542     0.06000
N2362       N  0.96730624  0.53329338  0.44535216    -0.26900
N2363       N  0.55278735  0.97306019  0.46774103    -0.26600
N2364       N  0.96300578  0.53289686  0.05363726     0.00500
C2365       C  0.93660948  0.93928857  0.43485309     0.41900
C2366       C  0.53380005  0.95289815  0.07488218    -0.07800
N2367       N  0.55380528  0.53314205  0.46682763    -0.26600
H2368       H  0.58995635  0.94681039  0.47730591     0.06000
N2369       N  0.92737336  0.95214266  0.46033574    -0.47800
H2370       H  0.52088807  0.94862030  0.09514414     0.06000
C2371       C  0.56055876  0.56997429  0.05893301     0.41700
C2372       C  0.92398168  0.95111355  0.03819203    -0.07300
Co2373     Co  0.99599181  0.50315854  0.05491345     0.73800
N2374       N  0.56940619  0.95350595  0.03842594    -0.47500
C2375       C  0.93546224  0.56695498  0.43736327     0.42000
N2376       N  0.95806518  0.55238824  0.07387965    -0.47500
Co2377     Co  0.55247911  0.50328181  0.00035475     0.73900
C2378       C  0.57456143  0.55254277  0.46097350    -0.07800
C2379       C  0.96331124  0.95407517  0.42430790    -0.07400
N2380       N  0.94308135  0.53256423  0.03240136    -0.26900
N2381       N  0.53781972  0.95292655  0.42647345    -0.47700
H2382       H  0.97684495  0.56000288  0.40725977     0.06000
C2383       C  0.53348119  0.55651504  0.07110352    -0.07800
Cl2384     Cl  0.49840646  0.50312797  0.99965271    -0.50800
C2385       C  0.56112582  0.93997833  0.06383207     0.41700
H2386       H  0.90434933  0.55739719  0.02462407     0.05900
N2387       N  0.56977568  0.55438456  0.03559962    -0.47500
C2388       C  0.63701640  0.64284815  0.35862850     0.85600
C2389       C  0.67050596  0.64190725  0.36525232    -0.54600
C2390       C  0.68812687  0.65791789  0.34673958     0.08500
C2391       C  0.67020081  0.67549503  0.32464347     0.24100
C2392       C  0.63015766  0.67385454  0.36231210    -0.55300
C2393       C  0.64726236  0.69096537  0.34442908     0.08600
C2394       C  0.63503450  0.63706569  0.32483344    -0.54900
C2395       C  0.65210504  0.65416286  0.30698245     0.09200
H2396       H  0.67962768  0.63114348  0.38426777     0.13700
H2397       H  0.68386845  0.68940735  0.30990730    -0.00500
H2398       H  0.61411044  0.68179808  0.37852076     0.14000
H2399       H  0.62038326  0.62135754  0.31580943     0.13800
C2400       C  0.63089017  0.85852401  0.36682219     0.85600
C2401       C  0.62540533  0.86278384  0.33320800    -0.54600
C2402       C  0.64264482  0.84703686  0.31463184     0.08500
C2403       C  0.66350601  0.82754722  0.33143262     0.19500
C2404       C  0.62600309  0.82680546  0.37159449    -0.55300
C2405       C  0.64332781  0.81080062  0.35309634     0.08600
C2406       C  0.66455495  0.86242312  0.37036061    -0.54900
C2407       C  0.68180323  0.84671023  0.35152331     0.09200
H2408       H  0.60889589  0.87694730  0.32487619     0.13700
H2409       H  0.67694748  0.81390244  0.31667592    -0.00500
H2410       H  0.61098779  0.81728612  0.38794688     0.14000
H2411       H  0.67387238  0.87672838  0.38642922     0.13800
C2412       C  0.63198965  0.86212724  0.13300140     0.85600
C2413       C  0.66591404  0.86761225  0.13207050    -0.54600
C2414       C  0.68160868  0.85035366  0.14983273     0.08500
C2415       C  0.66224818  0.82929283  0.16739226     0.19500
C2416       C  0.62900628  0.83124641  0.12518044    -0.55300
C2417       C  0.64447550  0.81393850  0.14335958     0.08600
C2418       C  0.62389859  0.86414820  0.16679441    -0.54900
C2419       C  0.63929979  0.84656870  0.18472104     0.09200
H2420       H  0.67737975  0.88376188  0.11941462     0.13700
H2421       H  0.67533246  0.81568307  0.18211855    -0.00500
H2422       H  0.61639588  0.82398467  0.10627463     0.14000
H2423       H  0.60766845  0.87854176  0.17579101     0.13800
C2424       C  0.63487294  0.64626940  0.12553257     0.85600
C2425       C  0.62907024  0.64175017  0.15947251    -0.54600
C2426       C  0.64675420  0.65740406  0.17722977     0.08500
C2427       C  0.66961102  0.67522389  0.15972226     0.19500
C2428       C  0.63339165  0.67781012  0.12050562    -0.55300
C2429       C  0.65154483  0.69335751  0.13840715     0.08600
C2430       C  0.66806266  0.63937288  0.12163285    -0.54900
C2431       C  0.68606521  0.65488114  0.13900958     0.09200
H2432       H  0.61267951  0.62727368  0.16872465     0.13700
H2433       H  0.68409969  0.68624186  0.17537494    -0.00500
H2434       H  0.61908419  0.68683915  0.10389182     0.14000
H2435       H  0.67708358  0.62334236  0.10725040     0.13800
C2436       C  0.86511965  0.64734956  0.37260022     0.85600
C2437       C  0.86933474  0.64247904  0.33876916    -0.54600
C2438       C  0.85532961  0.66115939  0.32120102     0.08500
C2439       C  0.83807108  0.68304968  0.33892275     0.19500
C2440       C  0.87463029  0.67762532  0.37775306    -0.55300
C2441       C  0.86082139  0.69614018  0.35994089     0.08600
C2442       C  0.83123746  0.64851195  0.37823516    -0.54900
C2443       C  0.81659951  0.66641244  0.35970723     0.09200
H2444       H  0.88160309  0.62509511  0.32958405     0.13700
H2445       H  0.82766875  0.69814137  0.32380802    -0.00500
H2446       H  0.88908491  0.68428456  0.39554459     0.14000
H2447       H  0.81967116  0.63626853  0.39533038     0.13800
C2448       C  0.86410681  0.64115090  0.14019389     0.85600
C2449       C  0.83150535  0.63604171  0.13306336    -0.54600
C2450       C  0.81222643  0.65137499  0.14959334     0.08500
C2451       C  0.82707413  0.67129484  0.17171470     0.19500
C2452       C  0.86854509  0.67290193  0.13604950    -0.55300
C2453       C  0.84923946  0.68869464  0.15257090     0.08600
C2454       C  0.86613965  0.63716813  0.17445412    -0.54900
C2455       C  0.84665253  0.65268450  0.19133122     0.09200
H2456       H  0.82420691  0.62147920  0.11616711     0.13700
H2457       H  0.81099372  0.68438832  0.18401463    -0.00500
H2458       H  0.88587470  0.68271793  0.12253820     0.14000
H2459       H  0.88212637  0.62340576  0.18439312     0.13800
C2460       C  0.86184555  0.85837719  0.13790662     0.85600
C2461       C  0.86421704  0.86175467  0.17236347    -0.54600
C2462       C  0.84573577  0.84487661  0.18885215     0.08500
C2463       C  0.82614315  0.82604413  0.16963836     0.19500
C2464       C  0.86658853  0.82712726  0.13259265    -0.55300
C2465       C  0.84757183  0.80999733  0.14865703     0.08600
C2466       C  0.82854497  0.86317980  0.13262065    -0.54900
C2467       C  0.80995269  0.84595446  0.14881331     0.09200
H2468       H  0.87812613  0.87667076  0.18354679     0.13700
H2469       H  0.81063958  0.81275100  0.18314911    -0.00500
H2470       H  0.88412692  0.81946851  0.11791301     0.14000
H2471       H  0.82035062  0.87930224  0.11797491     0.13800
C2472       C  0.86014666  0.86282030  0.36928608     0.85600
C2473       C  0.82628731  0.86613305  0.37252381    -0.54600
C2474       C  0.81033879  0.84635135  0.35792075     0.08500
C2475       C  0.82965404  0.82593967  0.33988365     0.19500
C2476       C  0.86654929  0.83277708  0.37813165    -0.55300
C2477       C  0.85061932  0.81361994  0.36300952     0.08600
C2478       C  0.86516692  0.86391625  0.33473098    -0.54900
C2479       C  0.84930067  0.84451791  0.31932015     0.09200
H2480       H  0.81565156  0.88339686  0.38371174     0.13700
H2481       H  0.81679498  0.81011494  0.32751373    -0.00500
H2482       H  0.88277459  0.82710736  0.39468760     0.14000
H2483       H  0.87901150  0.87936359  0.32328648     0.13800
C2484       C  0.84488604  0.84506200  0.22228532    -0.07000
C2485       C  0.85441672  0.82141457  0.23745506    -0.18100
C2486       C  0.85534655  0.82035091  0.26889597     0.10200
C2487       C  0.84811196  0.84408606  0.28585096    -0.06900
C2488       C  0.83910678  0.86805437  0.27064493    -0.18200
C2489       C  0.83692611  0.86868047  0.23924185     0.10200
S2490       S  0.86732309  0.78893809  0.28664982    -0.33100
S2491       S  0.82385746  0.90025518  0.22243187    -0.33100
H2492       H  0.81246487  0.88823993  0.19645696     0.28200
H2493       H  0.86857120  0.77238575  0.26075766     0.28200
H2494       H  0.86244215  0.80409507  0.22458821     0.18800
H2495       H  0.83310826  0.88629115  0.28343281     0.18800
C2496       C  0.84975108  0.71976429  0.15173526    -0.07000
C2497       C  0.85404979  0.73357526  0.12406715    -0.18100
C2498       C  0.85363101  0.76266377  0.12182170     0.10200
C2499       C  0.84811858  0.77883169  0.14794496    -0.06900
C2500       C  0.84323156  0.76472762  0.17527052    -0.18200
C2501       C  0.84533712  0.73599761  0.17770953     0.10200
S2502       S  0.85903227  0.77693226  0.08460587    -0.33100
S2503       S  0.84594730  0.72217479  0.21520233    -0.33100
H2504       H  0.87116049  0.70613991  0.20886222     0.28200
H2505       H  0.84037324  0.79955372  0.08891294     0.28200
H2506       H  0.85726449  0.72157467  0.10378270     0.18800
H2507       H  0.83895018  0.77611794  0.19555939     0.18800
C2508       C  0.85401645  0.65908302  0.28809272    -0.07000
C2509       C  0.82615612  0.66075933  0.27512324    -0.18100
C2510       C  0.82263306  0.65825431  0.24419945     0.10200
C2511       C  0.84778043  0.65380837  0.22504251    -0.06900
C2512       C  0.87582384  0.65244368  0.23837308    -0.18200
C2513       C  0.87924545  0.65530958  0.26936012     0.10200
S2514       S  0.78509184  0.66026763  0.23185665    -0.33100
S2515       S  0.91654516  0.65558596  0.28311068    -0.33100
H2516       H  0.91089507  0.67382382  0.30694286     0.28200
H2517       H  0.78960969  0.63993188  0.21042799     0.28200
H2518       H  0.80663055  0.66348791  0.28939708     0.18800
H2519       H  0.89564526  0.65044507  0.22443994     0.18800
C2520       C  0.86225237  0.72607098  0.36545504    -0.07000
C2521       C  0.83851219  0.73773357  0.38139824    -0.18100
C2522       C  0.83413578  0.76625208  0.38105724     0.10200
C2523       C  0.85532518  0.78365429  0.36670180    -0.06900
C2524       C  0.88136219  0.77213142  0.35458287    -0.18200
C2525       C  0.88472130  0.74338369  0.35305957     0.10200
S2526       S  0.80078390  0.77902411  0.39847603    -0.33100
S2527       S  0.91688887  0.73027642  0.33333970    -0.33100
H2528       H  0.91928735  0.70595104  0.35047803     0.28200
H2529       H  0.78991394  0.78922498  0.37131495     0.28200
H2530       H  0.82208064  0.72435168  0.39231444     0.18800
H2531       H  0.89828064  0.78555675  0.34455070     0.18800
C2532       C  0.71846500  0.65191023  0.13815459    -0.07000
C2533       C  0.73097406  0.63041347  0.15463978    -0.18100
C2534       C  0.76171559  0.62834345  0.15700566     0.10200
C2535       C  0.78002107  0.64993386  0.14505655    -0.06900
C2536       C  0.76753229  0.67029261  0.12685062    -0.18200
C2537       C  0.73710254  0.67037405  0.12173672     0.10200
S2538       S  0.77539449  0.59718159  0.17444519    -0.33100
S2539       S  0.72383352  0.69322751  0.09282668    -0.33100
H2540       H  0.69759287  0.67858748  0.08697629     0.28200
H2541       H  0.80501285  0.60525664  0.17761256     0.28200
H2542       H  0.71666470  0.61505863  0.16556470     0.18800
H2543       H  0.78174799  0.68558751  0.11569787     0.18800
C2544       C  0.65119600  0.72456141  0.13852589    -0.07000
C2545       C  0.62401412  0.73757930  0.13293444    -0.18100
C2546       C  0.62079409  0.76633253  0.13426312     0.10200
C2547       C  0.64570770  0.78327749  0.14006685    -0.06900
C2548       C  0.67298317  0.77058855  0.14477502    -0.18200
C2549       C  0.67600467  0.74175100  0.14526703     0.10200
S2550       S  0.58376442  0.77932449  0.13025436    -0.33100
S2551       S  0.71206834  0.72874036  0.15459220    -0.33100
H2552       H  0.72479491  0.75364748  0.16463455     0.28200
H2553       H  0.58613143  0.79967545  0.15246022     0.28200
H2554       H  0.60433308  0.72519276  0.12919228     0.18800
H2555       H  0.69228180  0.78352204  0.14834423     0.18800
C2556       C  0.71451902  0.85070903  0.14995651    -0.07000
C2557       C  0.73006407  0.84774512  0.12255694    -0.18100
C2558       C  0.76099233  0.84589129  0.12147008     0.10200
C2559       C  0.77708760  0.84746469  0.14828341    -0.06900
C2560       C  0.76150222  0.85052950  0.17564051    -0.18200
C2561       C  0.73060077  0.85270198  0.17665049     0.10200
S2562       S  0.77831082  0.83909225  0.08561606    -0.33100
S2563       S  0.71315370  0.85995312  0.21231025    -0.33100
H2564       H  0.69308578  0.87894101  0.20032817     0.28200
H2565       H  0.79631846  0.81844331  0.09750334     0.28200
H2566       H  0.71792054  0.84581229  0.10193884     0.18800
H2567       H  0.77353749  0.85199828  0.19635543     0.18800
C2568       C  0.64062588  0.84778144  0.28139874    -0.07000
C2569       C  0.63851496  0.82247141  0.26631817    -0.18100
C2570       C  0.63617443  0.82146488  0.23510504     0.10200
C2571       C  0.63664206  0.84630518  0.21808797    -0.06900
C2572       C  0.63791436  0.87165963  0.23323834    -0.18200
C2573       C  0.64035797  0.87272911  0.26444826     0.10200
S2574       S  0.63096534  0.78786784  0.21871764    -0.33100
S2575       S  0.64527547  0.90661525  0.28042632    -0.33100
H2576       H  0.66480659  0.89809560  0.30261609     0.28200
H2577       H  0.61115569  0.79742393  0.19727931     0.28200
H2578       H  0.63796883  0.80325427  0.27904102     0.18800
H2579       H  0.63883065  0.89084899  0.22048819     0.18800
C2580       C  0.71493340  0.84702622  0.35237474    -0.07000
C2581       C  0.72835840  0.84882981  0.38048412    -0.18100
C2582       C  0.75913028  0.84808711  0.38328024     0.10200
C2583       C  0.77748598  0.84596328  0.35722920    -0.06900
C2584       C  0.76423973  0.84378636  0.32921775    -0.18200
C2585       C  0.73347608  0.84457177  0.32642905     0.10200
S2586       S  0.77278283  0.84855831  0.42099891    -0.33100
S2587       S  0.72004745  0.84438477  0.28881368    -0.33100
H2588       H  0.70056752  0.86625016  0.29428162     0.28200
H2589       H  0.79921415  0.83453929  0.41485977     0.28200
H2590       H  0.71471004  0.84983273  0.40075604     0.18800
H2591       H  0.77807042  0.84248342  0.30906957     0.18800
C2592       C  0.65100767  0.65403460  0.27361564    -0.07000
C2593       C  0.64610230  0.67929662  0.25895113    -0.18100
C2594       C  0.64260308  0.68056528  0.22788893     0.10200
C2595       C  0.64552351  0.65632935  0.21051320    -0.06900
C2596       C  0.65022679  0.63098090  0.22503836    -0.18200
C2597       C  0.65305595  0.62955693  0.25626753     0.10200
S2598       S  0.63250103  0.71339754  0.21204452    -0.33100
S2599       S  0.66126070  0.59624404  0.27218224    -0.33100
H2600       H  0.68156352  0.60722157  0.29236063     0.28200
H2601       H  0.61343998  0.70187396  0.19077862     0.28200
H2602       H  0.64386210  0.69813034  0.27190725     0.18800
H2603       H  0.65288864  0.61232797  0.21183661     0.18800
C2604       C  0.72114307  0.65927412  0.34907495    -0.07000
C2605       C  0.73533063  0.68498786  0.34489933    -0.18100
C2606       C  0.76585920  0.68858456  0.34890007     0.10200
C2607       C  0.78346169  0.66546836  0.35663902    -0.06900
C2608       C  0.76924918  0.63949230  0.35982914    -0.18200
C2609       C  0.73879129  0.63601781  0.35598613     0.10200
S2610       S  0.78062211  0.72325697  0.34477037    -0.33100
S2611       S  0.72499701  0.60081828  0.35839352    -0.33100
H2612       H  0.70306645  0.60408233  0.33700891     0.28200
H2613       H  0.75360883  0.73757285  0.34479239     0.28200
H2614       H  0.72238738  0.70268903  0.33874749     0.18800
H2615       H  0.78216255  0.62118292  0.36425926     0.18800
C2616       C  0.64545470  0.72166338  0.34617700    -0.07000
C2617       C  0.66924672  0.73619627  0.35848518    -0.18100
C2618       C  0.66846799  0.76495385  0.36224750     0.10200
C2619       C  0.64331618  0.77994900  0.35351106    -0.06900
C2620       C  0.61911445  0.76538851  0.34183056    -0.18200
C2621       C  0.61998627  0.73650116  0.33786418     0.10200
S2622       S  0.69993913  0.78111511  0.37933823    -0.33100
S2623       S  0.58823058  0.72003715  0.32139273    -0.33100
H2624       H  0.60312340  0.69718039  0.30915811     0.28200
H2625       H  0.68322964  0.80095694  0.39514369     0.28200
H2626       H  0.68816970  0.72495602  0.36638834     0.18800
H2627       H  0.59985230  0.77672404  0.33473234     0.18800
C2628       C  0.58364250  0.58417007  0.41318561    -0.07000
C2629       C  0.56977310  0.60628019  0.39883144    -0.18100
C2630       C  0.58587346  0.62508980  0.38045936     0.10200
C2631       C  0.61730718  0.62270711  0.37737095    -0.06900
C2632       C  0.63035603  0.59903076  0.39012457    -0.18200
C2633       C  0.61414962  0.58003913  0.40774280     0.10200
S2634       S  0.56417566  0.65100522  0.36180712    -0.33100
S2635       S  0.63359922  0.54987842  0.42060560    -0.33100
H2636       H  0.61014649  0.53123936  0.41533349     0.28200
H2637       H  0.57993065  0.65062581  0.33437697     0.28200
H2638       H  0.54605461  0.60886212  0.40186218     0.18800
H2639       H  0.65324570  0.59406967  0.38538359     0.18800
C2640       C  0.61295459  0.88068335  0.11296422    -0.07000
C2641       C  0.62645114  0.89833086  0.09123152    -0.18100
C2642       C  0.61038296  0.91779588  0.07527216     0.10200
C2643       C  0.57931852  0.91917226  0.07941984    -0.06900
C2644       C  0.56521309  0.90009675  0.09895487    -0.18200
C2645       C  0.58143185  0.88063255  0.11531853     0.10200
S2646       S  0.63163760  0.94127928  0.05144870    -0.33100
S2647       S  0.56120201  0.85581246  0.13867781    -0.33100
H2648       H  0.53243877  0.86391219  0.13111902     0.28200
H2649       H  0.61904804  0.96511151  0.06438077     0.28200
H2650       H  0.64981666  0.89758343  0.08612269     0.18800
H2651       H  0.54130172  0.90042658  0.10133668     0.18800
C2652       C  0.91761032  0.58575224  0.08395152    -0.07000
C2653       C  0.89932868  0.57496530  0.10693398    -0.18100
C2654       C  0.88230972  0.59231256  0.12552318     0.10200
C2655       C  0.88410848  0.62165773  0.12160696    -0.06900
C2656       C  0.90279939  0.63206456  0.09814366    -0.18200
C2657       C  0.91939528  0.61454699  0.07948188     0.10200
S2658       S  0.85773252  0.57613157  0.15328861    -0.33100
S2659       S  0.94155732  0.63029375  0.04960892    -0.33100
H2660       H  0.96287347  0.60935802  0.04705018     0.28200
H2661       H  0.86357330  0.54836239  0.14600671     0.28200
H2662       H  0.89805306  0.55269236  0.10988287     0.18800
H2663       H  0.90426685  0.65383551  0.09304262     0.18800
C2664       C  0.61378297  0.62998385  0.10539754    -0.07000
C2665       C  0.62476794  0.61739996  0.07903249    -0.18100
C2666       C  0.60720612  0.59987401  0.06193282     0.10200
C2667       C  0.57797651  0.59321164  0.07191767    -0.06900
C2668       C  0.56570344  0.60856160  0.09577182    -0.18200
C2669       C  0.58280721  0.62799598  0.11144130     0.10200
S2670       S  0.62362254  0.58766535  0.02727279    -0.33100
S2671       S  0.56443002  0.65068082  0.13799442    -0.33100
H2672       H  0.53523232  0.64407203  0.12999214     0.28200
H2673       H  0.59896179  0.59520683  0.01033706     0.28200
H2674       H  0.64696050  0.62182604  0.07068484     0.18800
H2675       H  0.54264642  0.60545478  0.10216954     0.18800
C2676       C  0.87941287  0.88286553  0.38724507    -0.07000
C2677       C  0.90888518  0.88732871  0.37716756    -0.18100
C2678       C  0.92878396  0.90371131  0.39307718     0.10200
C2679       C  0.91877910  0.91805292  0.41899281    -0.06900
C2680       C  0.89018794  0.91210384  0.43032868    -0.18200
C2681       C  0.87134754  0.89348384  0.41604126     0.10200
S2682       S  0.96692020  0.90253565  0.38043375    -0.33100
S2683       S  0.83970100  0.88209027  0.43823842    -0.33100
H2684       H  0.84467883  0.85391370  0.43240814     0.28200
H2685       H  0.97801138  0.90047773  0.40963706     0.28200
H2686       H  0.91720472  0.87665666  0.35744501     0.18800
H2687       H  0.88273664  0.92112171  0.45137367     0.18800
C2688       C  0.88238904  0.62596016  0.39050278    -0.07000
C2689       C  0.91243297  0.63184777  0.39647560    -0.18100
C2690       C  0.93007299  0.61335379  0.41210160     0.10200
C2691       C  0.91789470  0.58785098  0.42187246    -0.06900
C2692       C  0.88872196  0.58099988  0.41470971    -0.18200
C2693       C  0.87139369  0.59894917  0.39790371     0.10200
S2694       S  0.96788621  0.62368829  0.41880785    -0.33100
S2695       S  0.83712340  0.58432385  0.38473130    -0.33100
H2696       H  0.83958839  0.59587323  0.35578489     0.28200
H2697       H  0.96990827  0.61020211  0.44672945     0.28200
H2698       H  0.92279565  0.65086544  0.38845328     0.18800
H2699       H  0.87995235  0.56066793  0.42070196     0.18800
C2700       C  0.61270847  0.87915913  0.38601100    -0.07000
C2701       C  0.59073173  0.87000952  0.40701492    -0.18100
C2702       C  0.57297887  0.88873486  0.42318631     0.10200
C2703       C  0.57722007  0.91741774  0.41892353    -0.06900
C2704       C  0.59906171  0.92686414  0.39867599    -0.18200
C2705       C  0.61678338  0.90838877  0.38226011     0.10200
S2706       S  0.54548006  0.87473870  0.44924956    -0.33100
S2707       S  0.64490789  0.92315097  0.35725446    -0.33100
H2708       H  0.63558045  0.95085680  0.35848544     0.28200
H2709       H  0.52538082  0.89670308  0.44714372     0.28200
H2710       H  0.58658384  0.84828482  0.41098731     0.18800
H2711       H  0.60249563  0.94900427  0.39612397     0.18800
C2712       C  0.91830980  0.91582245  0.08405064    -0.07000
C2713       C  0.89607647  0.89997176  0.07048009    -0.18100
C2714       C  0.87900163  0.88017801  0.08674623     0.10200
C2715       C  0.88266887  0.87704813  0.11822153    -0.06900
C2716       C  0.90672258  0.89135638  0.13096153    -0.18200
C2717       C  0.92442811  0.91024127  0.11448756     0.10200
S2718       S  0.85308819  0.85892568  0.06649114    -0.33100
S2719       S  0.95421392  0.92658069  0.13424967    -0.33100
H2720       H  0.97600441  0.91685380  0.11390217     0.28200
H2721       H  0.86159169  0.86759243  0.03733070     0.28200
H2722       H  0.89204674  0.90298877  0.04686010     0.18800
H2723       H  0.91292420  0.88756368  0.15380015     0.18800
C2724       C  0.93503979  0.93760658  0.56560922     0.41600
N2725       N  0.96328399  0.97255643  0.55421206     0.00500
C2726       C  0.96352133  0.55495161  0.92677314    -0.07400
H2727       H  0.97624543  0.95220670  0.90399571     0.06000
C2728       C  0.57059718  0.95129924  0.96323411    -0.07700
Co2729     Co  0.94388004  0.00239955  0.99913919     0.74200
N2730       N  0.96748063  0.97378818  0.94475992    -0.26900
Co2731     Co  0.50024766  0.00350826  0.94473721     0.74100
C2732       C  0.56007295  0.93773076  0.93632839     0.41700
N2733       N  0.55005287  0.97355535  0.53423000     0.00100
N2734       N  0.53267235  0.97278338  0.94590687     0.00200
N2735       N  0.92610270  0.55227245  0.96144273    -0.47800
H2736       H  0.90622175  0.94538002  0.52421435     0.06000
N2737       N  0.94625186  0.97239819  0.96548722     0.00500
N2738       N  0.53419608  0.53366138  0.94524718     0.00200
C2739       C  0.56583098  0.56526984  0.93245461     0.41800
N2740       N  0.52900377  0.97368234  0.55523701    -0.26400
C2741       C  0.92185116  0.55186928  0.53766200    -0.07300
N2742       N  0.95868939  0.95265983  0.57441289    -0.47500
N2743       N  0.54059485  0.55241526  0.92414343    -0.47700
C2744       C  0.93205244  0.56543301  0.56477337     0.41600
N2745       N  0.94602961  0.53280493  0.96573872     0.00500
N2746       N  0.52868018  0.53407552  0.55368150    -0.26400
N2747       N  0.94376590  0.97190419  0.53262121    -0.26900
N2748       N  0.55010459  0.53347355  0.53308249     0.00100
H2749       H  0.51960270  0.56182380  0.59055842     0.06000
H2750       H  0.59422643  0.55626844  0.97359170     0.06000
N2751       N  0.96793898  0.53371203  0.94556921    -0.26900
N2752       N  0.55214156  0.97257549  0.96756265    -0.26600
N2753       N  0.96173939  0.53269245  0.55345930     0.00500
C2754       C  0.93620587  0.93952136  0.93464629     0.41900
C2755       C  0.53444375  0.95351700  0.57517733    -0.07800
N2756       N  0.55391656  0.53321342  0.96660890    -0.26600
H2757       H  0.58936792  0.94631451  0.97686259     0.06000
N2758       N  0.92689030  0.95232721  0.96016144    -0.47800
H2759       H  0.52156144  0.94920523  0.59545507     0.06000
C2760       C  0.56054402  0.56938020  0.55928234     0.41700
C2761       C  0.92505824  0.95052075  0.53775826    -0.07300
Co2762     Co  0.99507366  0.50336332  0.55494220     0.73800
N2763       N  0.57010787  0.95431099  0.53876070    -0.47500
C2764       C  0.93597565  0.56733130  0.93763091     0.42000
N2765       N  0.95646252  0.55213635  0.57368365    -0.47500
Co2766     Co  0.55201919  0.50305973  0.50045361     0.73900
C2767       C  0.57458698  0.55266126  0.96069405    -0.07800
C2768       C  0.96289690  0.95431639  0.92419562    -0.07400
N2769       N  0.94177492  0.53193907  0.53226622    -0.26900
N2770       N  0.53699442  0.95254022  0.92630861    -0.47700
H2771       H  0.97720418  0.56028564  0.90730649     0.06000
C2772       C  0.53328715  0.55614637  0.57137130    -0.07800
Cl2773     Cl  0.49799449  0.50315040  0.49957319    -0.50800
C2774       C  0.56192912  0.94084122  0.56422039     0.41700
H2775       H  0.90236646  0.55587987  0.52469218     0.05900
N2776       N  0.56952380  0.55385580  0.53583304    -0.47500
C2777       C  0.63726200  0.64289953  0.85857115     0.85600
C2778       C  0.67079074  0.64199203  0.86488276    -0.54600
C2779       C  0.68820348  0.65812061  0.84627643     0.08500
C2780       C  0.67004980  0.67579079  0.82446217     0.24100
C2781       C  0.63037161  0.67389991  0.86248343    -0.55300
C2782       C  0.64723476  0.69112960  0.84450078     0.08600
C2783       C  0.63504076  0.63723580  0.82475478    -0.54900
C2784       C  0.65187300  0.65450940  0.80688117     0.09200
H2785       H  0.68012543  0.63107129  0.88367965     0.13700
H2786       H  0.68355076  0.68978663  0.80965959    -0.00500
H2787       H  0.61451885  0.68175403  0.87893780     0.14000
H2788       H  0.62052866  0.62141093  0.81573028     0.13800
C2789       C  0.63066394  0.85873696  0.86627576     0.85600
C2790       C  0.62493040  0.86271281  0.83269647    -0.54600
C2791       C  0.64233628  0.84709420  0.81417175     0.08500
C2792       C  0.66357934  0.82796864  0.83094633     0.19500
C2793       C  0.62627707  0.82698843  0.87127801    -0.55300
C2794       C  0.64371883  0.81108309  0.85279561     0.08600
C2795       C  0.66429791  0.86311610  0.86959749    -0.54900
C2796       C  0.68168820  0.84748944  0.85080670     0.09200
H2797       H  0.60819064  0.87662724  0.82434140     0.13700
H2798       H  0.67717983  0.81445855  0.81618054    -0.00500
H2799       H  0.61141397  0.81736292  0.88769398     0.14000
H2800       H  0.67349619  0.87761497  0.88553573     0.13800
C2801       C  0.63305307  0.86278290  0.63291868     0.85600
C2802       C  0.66703657  0.86792744  0.63217284    -0.54600
C2803       C  0.68248645  0.85037851  0.64983825     0.08500
C2804       C  0.66284218  0.82923897  0.66698565     0.19500
C2805       C  0.62969626  0.83198762  0.62473262    -0.55300
C2806       C  0.64489448  0.81433375  0.64276212     0.08600
C2807       C  0.62484400  0.86446310  0.66665368    -0.54900
C2808       C  0.63996081  0.84652883  0.68442586     0.09200
H2809       H  0.67876089  0.88402430  0.61969944     0.13700
H2810       H  0.67581799  0.81528101  0.68142840    -0.00500
H2811       H  0.61682411  0.82496730  0.60589832     0.14000
H2812       H  0.60865701  0.87886763  0.67571887     0.13800
C2813       C  0.63497666  0.64640417  0.62555332     0.85600
C2814       C  0.62946068  0.64184016  0.65952908    -0.54600
C2815       C  0.64659719  0.65811744  0.67720741     0.08500
C2816       C  0.66876261  0.67659009  0.65959789     0.19500
C2817       C  0.63227881  0.67786201  0.62042730    -0.55300
C2818       C  0.65013930  0.69390430  0.63801520     0.08600
C2819       C  0.66850696  0.64063535  0.62159219    -0.54900
C2820       C  0.68592489  0.65661884  0.63914700     0.09200
H2821       H  0.61362354  0.62687114  0.66885159     0.13700
H2822       H  0.68291383  0.68863257  0.67486739    -0.00500
H2823       H  0.61762804  0.68653447  0.60389507     0.14000
H2824       H  0.67819852  0.62472157  0.60753001     0.13800
C2825       C  0.86501672  0.64701309  0.87241128     0.85600
C2826       C  0.86937200  0.64247974  0.83853849    -0.54600
C2827       C  0.85549913  0.66136029  0.82106909     0.08500
C2828       C  0.83815453  0.68308892  0.83901460     0.19500
C2829       C  0.87442559  0.67725864  0.87801448    -0.55300
C2830       C  0.86067376  0.69595109  0.86037162     0.08600
C2831       C  0.83109649  0.64809371  0.87782233    -0.54900
C2832       C  0.81658305  0.66624669  0.85945189     0.09200
H2833       H  0.88142246  0.62500701  0.82928222     0.13700
H2834       H  0.82782657  0.69842345  0.82413006    -0.00500
H2835       H  0.88886841  0.68371246  0.89590612     0.14000
H2836       H  0.81939986  0.63573693  0.89471735     0.13800
C2837       C  0.86392481  0.64173798  0.63998487     0.85600
C2838       C  0.83128044  0.63781647  0.63222837    -0.54600
C2839       C  0.81229301  0.65316101  0.64906733     0.08500
C2840       C  0.82749278  0.67247231  0.67149837     0.19500
C2841       C  0.86940041  0.67335491  0.63627984    -0.55300
C2842       C  0.85041676  0.68941947  0.65280857     0.08600
C2843       C  0.86520905  0.63713137  0.67423382    -0.54900
C2844       C  0.84615966  0.65315192  0.69113429     0.09200
H2845       H  0.82368273  0.62362120  0.61510809     0.13700
H2846       H  0.81178125  0.68611030  0.68344454    -0.00500
H2847       H  0.88670408  0.68294177  0.62256130     0.14000
H2848       H  0.88041888  0.62256169  0.68409877     0.13800
C2849       C  0.86277173  0.85874923  0.63793628     0.85600
C2850       C  0.86528548  0.86222907  0.67237719    -0.54600
C2851       C  0.84702410  0.84522147  0.68896501     0.08500
C2852       C  0.82745923  0.82627083  0.66989810     0.19500
C2853       C  0.86773701  0.82758615  0.63265639    -0.55300
C2854       C  0.84896030  0.81040399  0.64883493     0.08600
C2855       C  0.82939662  0.86333986  0.63279472    -0.54900
C2856       C  0.81097874  0.84607144  0.64918695     0.09200
H2857       H  0.87909921  0.87730518  0.68344912     0.13700
H2858       H  0.81216250  0.81284494  0.68349910    -0.00500
H2859       H  0.88528049  0.81999976  0.61792659     0.14000
H2860       H  0.82103728  0.87934793  0.61810367     0.13800
C2861       C  0.86019066  0.86252291  0.86929877     0.85600
C2862       C  0.82635308  0.86633421  0.87216021    -0.54600
C2863       C  0.81021911  0.84671902  0.85750778     0.08500
C2864       C  0.82937690  0.82597138  0.83974795     0.19500
C2865       C  0.86600323  0.83242825  0.87835916    -0.55300
C2866       C  0.84991872  0.81341915  0.86317291     0.08600
C2867       C  0.86557546  0.86342962  0.83483018    -0.54900
C2868       C  0.84951541  0.84426840  0.81934881     0.09200
H2869       H  0.81588316  0.88378898  0.88315058     0.13700
H2870       H  0.81641433  0.81030074  0.82725990    -0.00500
H2871       H  0.88205471  0.82659936  0.89502451     0.14000
H2872       H  0.87974215  0.87866230  0.82344499     0.13800
C2873       C  0.84623902  0.84536505  0.72236186    -0.07000
C2874       C  0.85627849  0.82188227  0.73747692    -0.18100
C2875       C  0.85667657  0.82059617  0.76890643     0.10200
C2876       C  0.84857259  0.84401395  0.78591732    -0.06900
C2877       C  0.83921972  0.86790200  0.77079832    -0.18200
C2878       C  0.83747083  0.86870256  0.73936737     0.10200
S2879       S  0.86909756  0.78935512  0.78661187    -0.33100
S2880       S  0.82404969  0.90016924  0.72260567    -0.33100
H2881       H  0.81365328  0.88833096  0.69610716     0.28200
H2882       H  0.86831868  0.77240576  0.76103797     0.28200
H2883       H  0.86510757  0.80486936  0.72461866     0.18800
H2884       H  0.83266363  0.88592791  0.78366414     0.18800
C2885       C  0.85157360  0.72041016  0.65204387    -0.07000
C2886       C  0.85572443  0.73415638  0.62433311    -0.18100
C2887       C  0.85519335  0.76320569  0.62205396     0.10200
C2888       C  0.84997453  0.77934479  0.64823986    -0.06900
C2889       C  0.84564745  0.76532862  0.67566212    -0.18200
C2890       C  0.84753711  0.73662391  0.67808222     0.10200
S2891       S  0.85973222  0.77746145  0.58473412    -0.33100
S2892       S  0.84765425  0.72270110  0.71554905    -0.33100
H2893       H  0.87220976  0.70581372  0.70923958     0.28200
H2894       H  0.84082646  0.79985898  0.58937711     0.28200
H2895       H  0.85862652  0.72212901  0.60401961     0.18800
H2896       H  0.84157280  0.77676889  0.69598730     0.18800
C2897       C  0.85394284  0.65931017  0.78790936    -0.07000
C2898       C  0.82616490  0.66227786  0.77499311    -0.18100
C2899       C  0.82234594  0.66002989  0.74397776     0.10200
C2900       C  0.84722241  0.65425560  0.72486846    -0.06900
C2901       C  0.87511106  0.65132013  0.73819679    -0.18200
C2902       C  0.87880174  0.65414333  0.76911503     0.10200
S2903       S  0.78532353  0.66483930  0.73048321    -0.33100
S2904       S  0.91612414  0.65269194  0.78264661    -0.33100
H2905       H  0.91181587  0.67243801  0.80533359     0.28200
H2906       H  0.76996737  0.66312832  0.75827782     0.28200
H2907       H  0.80712267  0.66622653  0.78948455     0.18800
H2908       H  0.89476558  0.64823142  0.72429324     0.18800
C2909       C  0.86204552  0.72585691  0.86606674    -0.07000
C2910       C  0.83822978  0.73746051  0.88198810    -0.18100
C2911       C  0.83352082  0.76595277  0.88131026     0.10200
C2912       C  0.85456672  0.78341417  0.86679592    -0.06900
C2913       C  0.88069126  0.77197654  0.85477797    -0.18200
C2914       C  0.88423466  0.74325310  0.85332377     0.10200
S2915       S  0.79997647  0.77857722  0.89852561    -0.33100
S2916       S  0.91615235  0.73029104  0.83302388    -0.33100
H2917       H  0.91826698  0.70530654  0.84904506     0.28200
H2918       H  0.78979733  0.78997624  0.87163447     0.28200
H2919       H  0.82190669  0.72401923  0.89299080     0.18800
H2920       H  0.89754719  0.78545760  0.84473282     0.18800
C2921       C  0.71833155  0.65396123  0.63940600    -0.07000
C2922       C  0.73055274  0.63761486  0.66194900    -0.18100
C2923       C  0.76124049  0.63499667  0.66412621     0.10200
C2924       C  0.78001593  0.65141827  0.64527592    -0.06900
C2925       C  0.76784073  0.66640339  0.62165077    -0.18200
C2926       C  0.73721684  0.66706421  0.61779596     0.10200
S2927       S  0.77443065  0.60909538  0.68990848    -0.33100
S2928       S  0.72431675  0.68468501  0.58469168    -0.33100
H2929       H  0.69430473  0.68693169  0.59282559     0.28200
H2930       H  0.80361114  0.60777488  0.67879673     0.28200
H2931       H  0.71602649  0.62622041  0.67742937     0.18800
H2932       H  0.78236522  0.67766160  0.60606036     0.18800
C2933       C  0.64991112  0.72498603  0.63724115    -0.07000
C2934       C  0.62259009  0.73821609  0.63339940    -0.18100
C2935       C  0.61997295  0.76706489  0.63462302     0.10200
C2936       C  0.64546792  0.78366917  0.63927379    -0.06900
C2937       C  0.67284913  0.77064062  0.64216652    -0.18200
C2938       C  0.67553667  0.74176946  0.64127622     0.10200
S2939       S  0.58308068  0.78068077  0.63188000    -0.33100
S2940       S  0.71224353  0.72768882  0.64450701    -0.33100
H2941       H  0.72841294  0.75272776  0.64277020     0.28200
H2942       H  0.58675344  0.80131547  0.65356230     0.28200
H2943       H  0.60261382  0.72591381  0.63085693     0.18800
H2944       H  0.69245431  0.78332915  0.64514161     0.18800
C2945       C  0.71542706  0.85066936  0.65026538    -0.07000
C2946       C  0.73110927  0.84798927  0.62292716    -0.18100
C2947       C  0.76200769  0.84592166  0.62198122     0.10200
C2948       C  0.77805557  0.84741448  0.64880601    -0.06900
C2949       C  0.76236829  0.85027532  0.67615929    -0.18200
C2950       C  0.73140830  0.85232267  0.67707419     0.10200
S2951       S  0.77934656  0.83839279  0.58635128    -0.33100
S2952       S  0.71371598  0.85884275  0.71277168    -0.33100
H2953       H  0.69362021  0.87798490  0.70113801     0.28200
H2954       H  0.79587744  0.81681756  0.59861416     0.28200
H2955       H  0.71906759  0.84623530  0.60222997     0.18800
H2956       H  0.77434553  0.85160844  0.69692275     0.18800
C2957       C  0.64029539  0.84773718  0.78100499    -0.07000
C2958       C  0.63883289  0.82236849  0.76598659    -0.18100
C2959       C  0.63706531  0.82124952  0.73475445     0.10200
C2960       C  0.63703307  0.84608665  0.71773115    -0.06900
C2961       C  0.63748462  0.87147686  0.73286178    -0.18200
C2962       C  0.63973101  0.87264170  0.76403808     0.10200
S2963       S  0.63363380  0.78744828  0.71840084    -0.33100
S2964       S  0.64438007  0.90661392  0.77987497    -0.33100
H2965       H  0.66391907  0.89830779  0.80214261     0.28200
H2966       H  0.61344472  0.79611676  0.69691949     0.28200
H2967       H  0.63861397  0.80317418  0.77874743     0.18800
H2968       H  0.63813350  0.89067978  0.72013158     0.18800
C2969       C  0.71481538  0.84805458  0.85166400    -0.07000
C2970       C  0.72817630  0.84972389  0.87979790    -0.18100
C2971       C  0.75893410  0.84881845  0.88265853     0.10200
C2972       C  0.77736091  0.84674009  0.85664936    -0.06900
C2973       C  0.76418085  0.84488701  0.82857932    -0.18200
C2974       C  0.73341346  0.84576251  0.82574449     0.10200
S2975       S  0.77247520  0.84887563  0.92040998    -0.33100
S2976       S  0.72000520  0.84567307  0.78815475    -0.33100
H2977       H  0.70004418  0.86710985  0.79378754     0.28200
H2978       H  0.79865962  0.83448111  0.91419869     0.28200
H2979       H  0.71447573  0.85063079  0.90004248     0.18800
H2980       H  0.77806350  0.84363169  0.80846315     0.18800
C2981       C  0.65061135  0.65452180  0.77356429    -0.07000
C2982       C  0.64466977  0.67963537  0.75905877    -0.18100
C2983       C  0.64154650  0.68096311  0.72794594     0.10200
C2984       C  0.64554970  0.65692286  0.71046683    -0.06900
C2985       C  0.65128132  0.63170476  0.72487304    -0.18200
C2986       C  0.65395920  0.63027528  0.75611208     0.10200
S2987       S  0.63093122  0.71363971  0.71207968    -0.33100
S2988       S  0.66397922  0.59749549  0.77208200    -0.33100
H2989       H  0.68608624  0.60960072  0.78947711     0.28200
H2990       H  0.61250081  0.70187073  0.69041502     0.28200
H2991       H  0.64157316  0.69828748  0.77214965     0.18800
H2992       H  0.65490264  0.61323874  0.71158924     0.18800
C2993       C  0.72123235  0.65937184  0.84823353    -0.07000
C2994       C  0.73547683  0.68507381  0.84422049    -0.18100
C2995       C  0.76594392  0.68860882  0.84857527     0.10200
C2996       C  0.78349011  0.66540634  0.85615127    -0.06900
C2997       C  0.76925757  0.63942251  0.85891820    -0.18200
C2998       C  0.73883095  0.63602245  0.85490549     0.10200
S2999       S  0.78054510  0.72335541  0.84513978    -0.33100
S3000       S  0.72505642  0.60078746  0.85679930    -0.33100
H3001       H  0.70247176  0.60432909  0.83617831     0.28200
H3002       H  0.75364259  0.73736474  0.84990573     0.28200
H3003       H  0.72266733  0.70285334  0.83800328     0.18800
H3004       H  0.78213411  0.62105275  0.86318937     0.18800
C3005       C  0.64540301  0.72183983  0.84633377    -0.07000
C3006       C  0.66955593  0.73638726  0.85791667    -0.18100
C3007       C  0.66903049  0.76518393  0.86139626     0.10200
C3008       C  0.64373445  0.78021711  0.85317878    -0.06900
C3009       C  0.61915746  0.76565238  0.84228746    -0.18200
C3010       C  0.61978251  0.73672714  0.83854779     0.10200
S3011       S  0.70100404  0.78135801  0.87751150    -0.33100
S3012       S  0.58750380  0.72033854  0.82301050    -0.33100
H3013       H  0.60184386  0.69713393  0.81087522     0.28200
H3014       H  0.68467255  0.80107472  0.89390479     0.28200
H3015       H  0.68861205  0.72513741  0.86545892     0.18800
H3016       H  0.59974972  0.77701206  0.83563324     0.18800
C3017       C  0.58384897  0.58397554  0.91281019    -0.07000
C3018       C  0.57008246  0.60622104  0.89863434    -0.18100
C3019       C  0.58627453  0.62511148  0.88047786     0.10200
C3020       C  0.61768279  0.62267708  0.87735699    -0.06900
C3021       C  0.63071123  0.59895775  0.89006672    -0.18200
C3022       C  0.61440720  0.57987771  0.90752920     0.10200
S3023       S  0.56478063  0.65127332  0.86204651    -0.33100
S3024       S  0.63384087  0.54977168  0.92061098    -0.33100
H3025       H  0.61037499  0.53108055  0.91559366     0.28200
H3026       H  0.57901567  0.64893012  0.83391198     0.28200
H3027       H  0.54637552  0.60887104  0.90166494     0.18800
H3028       H  0.65364047  0.59406463  0.88545258     0.18800
C3029       C  0.61415909  0.88182155  0.61325838    -0.07000
C3030       C  0.62771302  0.90036589  0.59243238    -0.18100
C3031       C  0.61148320  0.91966872  0.57639036     0.10200
C3032       C  0.58033268  0.92033978  0.57994107    -0.06900
C3033       C  0.56630775  0.90083535  0.59897801    -0.18200
C3034       C  0.58261038  0.88136577  0.61519898     0.10200
S3035       S  0.63252252  0.94363430  0.55292380    -0.33100
S3036       S  0.56240339  0.85609393  0.63798004    -0.33100
H3037       H  0.53364554  0.86368126  0.62984564     0.28200
H3038       H  0.61902422  0.96719006  0.56549850     0.28200
H3039       H  0.65120226  0.90041063  0.58797865     0.18800
H3040       H  0.54236464  0.90077917  0.60100216     0.18800
C3041       C  0.91561705  0.58521886  0.58348757    -0.07000
C3042       C  0.89502585  0.57483345  0.60461267    -0.18100
C3043       C  0.87894376  0.59254191  0.62361599     0.10200
C3044       C  0.88355490  0.62178638  0.62160716    -0.06900
C3045       C  0.90522820  0.63174848  0.60067216    -0.18200
C3046       C  0.92083228  0.61391332  0.58149281     0.10200
S3047       S  0.85203026  0.57704751  0.64956205    -0.33100
S3048       S  0.94707182  0.62918265  0.55485570    -0.33100
H3049       H  0.94558952  0.60835051  0.53301425     0.28200
H3050       H  0.86009851  0.54924503  0.64530159     0.28200
H3051       H  0.89138595  0.55264122  0.60594518     0.18800
H3052       H  0.91005034  0.65348450  0.59804720     0.18800
C3053       C  0.61417017  0.62936312  0.60573703    -0.07000
C3054       C  0.62551306  0.61569459  0.58017708    -0.18100
C3055       C  0.60807122  0.59790255  0.56326846     0.10200
C3056       C  0.57836041  0.59226613  0.57243379    -0.06900
C3057       C  0.56593066  0.60824787  0.59567727    -0.18200
C3058       C  0.58308906  0.62757460  0.61146458     0.10200
S3059       S  0.62548882  0.58375088  0.53001574    -0.33100
S3060       S  0.56467487  0.65003698  0.63823897    -0.33100
H3061       H  0.53542297  0.64276619  0.63108017     0.28200
H3062       H  0.60258896  0.59265382  0.51141896     0.28200
H3063       H  0.64793183  0.61941191  0.57217642     0.18800
H3064       H  0.54269248  0.60560566  0.60157731     0.18800
C3065       C  0.87957983  0.88242946  0.88728169    -0.07000
C3066       C  0.90913036  0.88678288  0.87735505    -0.18100
C3067       C  0.92884563  0.90352711  0.89309588     0.10200
C3068       C  0.91861900  0.91808814  0.91880849    -0.06900
C3069       C  0.89000540  0.91214148  0.93003652    -0.18200
C3070       C  0.87129510  0.89337246  0.91584452     0.10200
S3071       S  0.96699317  0.90269405  0.88042229    -0.33100
S3072       S  0.83934894  0.88239758  0.93783400    -0.33100
H3073       H  0.84383357  0.85415333  0.93199847     0.28200
H3074       H  0.97805558  0.90078246  0.90963575     0.28200
H3075       H  0.91759051  0.87591026  0.85782176     0.18800
H3076       H  0.88237384  0.92137325  0.95090223     0.18800
C3077       C  0.88243170  0.62558820  0.89019337    -0.07000
C3078       C  0.91258270  0.63147164  0.89565372    -0.18100
C3079       C  0.93027835  0.61334140  0.91169622     0.10200
C3080       C  0.91817861  0.58801246  0.92206282    -0.06900
C3081       C  0.88888969  0.58108499  0.91537121    -0.18200
C3082       C  0.87140855  0.59876508  0.89836489     0.10200
S3083       S  0.96795606  0.62406983  0.91849144    -0.33100
S3084       S  0.83709235  0.58389213  0.88565740    -0.33100
H3085       H  0.83947589  0.59515167  0.85655777     0.28200
H3086       H  0.97004499  0.61080372  0.94653339     0.28200
H3087       H  0.92287854  0.65035126  0.88714257     0.18800
H3088       H  0.88014122  0.56087398  0.92187730     0.18800
C3089       C  0.61223421  0.87921702  0.88540050    -0.07000
C3090       C  0.59055140  0.86985892  0.90660123    -0.18100
C3091       C  0.57273284  0.88839497  0.92294451     0.10200
C3092       C  0.57643447  0.91711425  0.91845869    -0.06900
C3093       C  0.59787371  0.92676939  0.89788419    -0.18200
C3094       C  0.61580449  0.90847744  0.88145717     0.10200
S3095       S  0.54598888  0.87407023  0.94960792    -0.33100
S3096       S  0.64357876  0.92351423  0.85624237    -0.33100
H3097       H  0.63445737  0.95125046  0.85811197     0.28200
H3098       H  0.52579604  0.89603095  0.94860431     0.28200
H3099       H  0.58676723  0.84810419  0.91071125     0.18800
H3100       H  0.60089032  0.94894090  0.89516154     0.18800
C3101       C  0.91971591  0.91518924  0.58353016    -0.07000
C3102       C  0.89729473  0.89947205  0.57009066    -0.18100
C3103       C  0.87986273  0.88012808  0.58659589     0.10200
C3104       C  0.88353016  0.87725705  0.61809531    -0.06900
C3105       C  0.90786020  0.89125718  0.63065407    -0.18200
C3106       C  0.92594783  0.90960888  0.61393527     0.10200
S3107       S  0.85388730  0.85876426  0.56654996    -0.33100
S3108       S  0.95669136  0.92485676  0.63320405    -0.33100
H3109       H  0.97764773  0.91547281  0.61178025     0.28200
H3110       H  0.85567140  0.87310463  0.53898742     0.28200
H3111       H  0.89352808  0.90213150  0.54637130     0.18800
H3112       H  0.91408583  0.88746053  0.65348814     0.18800
loop_ 
_geom_bond_atom_site_label_1 
_geom_bond_atom_site_label_2 
_geom_bond_distance 
_geom_bond_site_symmetry_2 
_ccdc_geom_bond_type 
C1           N19   1.352       .  A
C1           C38   1.469       .  S
C1          C378   1.499       .  S
N2           N19   1.325       .  A
N2           N24   1.319       .  A
N2         Co817   2.094       .  S
C3           N28   1.341       .  A
C3           C41   1.459       .  S
C3           H48   1.082       .  S
H4           C45   1.077       .  S
C5           N29   1.340       .  A
C5            C9   1.456       .  S
C5           H34   1.081       .  S
Co6          N14   2.087       .  S
Co6         N413   2.093       .  S
Co6        N1213   2.089       .  S
Co6         N800   2.086       .  S
Co6       Cl2773   2.446       .  S
N7           C45   1.335       .  A
N7           N14   1.317       .  A
N7        Co1564   2.066       .  S
Co8          N11   2.092       .  S
Co8        N1563   2.066   1_455  S
Co8        N2362   2.078   1_455  S
Co8         N793   2.082       .  S
Co8       Cl1217   2.454   1_455  S
C9           N47   1.351       .  A
C9          C369   1.472       .  S
N10          N17   1.318       .  A
N10          N40   1.321       .  A
N10        Co821   2.071       .  S
N11          N29   1.319       .  A
N11          N47   1.326       .  A
N12          C41   1.349       .  A
N12          N22   1.323       .  A
H13          C38   1.081       .  S
N14          N35   1.323       .  A
N15          N33   1.318       .  A
N15          N20   1.326       .  A
N15        Co786   2.081       .  S
C16          N20   1.350       .  A
C16          C44   1.459       .  S
C16         C294   1.477       .  S
N17          C32   1.342       .  A
N17       Co2373   2.083   1_455  S
C18          N46   1.342       .  A
C18          C21   1.459       .  S
C18          H52   1.081       .  S
C21          N42   1.347       .  A
C21         C318   1.468       .  S
N22          N28   1.321       .  A
N22        Co784   2.088       .  S
N23          C49   1.346       .  A
N23          N25   1.319       .  A
N23       Co1595   2.098   1_455  S
N24          C38   1.344       .  A
N24        Co395   2.093   1_554  S
N25          N53   1.320       .  A
N25         Co43   2.076       .  S
H26          C49   1.081       .  S
H27          C44   1.081       .  S
N28       Co2342   2.082       .  S
N29       Co1210   2.081       .  S
N30          N42   1.324       .  A
N30          N46   1.320       .  A
N30         Co39   2.078       .  S
C31          N35   1.356       .  A
C31          C45   1.462       .  S
C31         C345   1.488       .  S
C32          C51   1.463       .  S
C32          H36   1.081       .  S
N33          C44   1.339       .  A
N33        Co432   2.080       .  S
C37          N53   1.347       .  A
C37          C49   1.471       .  S
C37         C333   1.491       .  S
Co39        N780   2.096   1_545  S
Co39       N2351   2.084   1_545  S
Co39       N1579   2.099       .  S
Co39      Cl1606   2.454   1_554  S
N40          C51   1.347       .  A
C41         C357   1.472       .  S
Co43        N788   2.075   1_545  S
Co43       N1196   2.080   1_544  S
Co43        N422   2.082   1_554  S
Co43        Cl50   2.440   1_454  S
N46       Co1173   2.091   1_554  S
Cl50      Co2729   2.446       .  S
Cl50      Co1175   2.453   1_655  S
Cl50      Co1595   2.456   1_556  S
C51         C309   1.481       .  S
C54          C55   1.546       .  S
C54          C60   1.538       .  S
C54          C58   1.540       .  S
C54         C297   1.539       .  S
C55          H62   1.083       .  S
C55          C56   1.364       .  D
C56          C57   1.544       .  S
C56         C270   1.496       .  S
C57          C61   1.537       .  S
C57          C59   1.545       .  S
C57          H63   1.110       .  S
C58          H64   1.085       .  S
C58          C59   1.365       .  D
C59         C282   1.487       .  S
C60          H65   1.086       .  S
C60          C61   1.364       .  D
C61         C258   1.487       .  S
C66          C67   1.538       .  S
C66          C72   1.540       .  S
C66          C70   1.556       .  S
C66         C366   1.547       .  S
C67          H74   1.086       .  S
C67          C68   1.364       .  D
C68          C69   1.540       .  S
C68         C234   1.488       .  S
C69          C73   1.538       .  S
C69          C71   1.534       .  S
C69          H75   1.108       .  S
C70          H76   1.081       .  S
C70          C71   1.370       .  D
C71         C285   1.488       .  S
C72          H77   1.086       .  S
C72          C73   1.368       .  D
C73         C246   1.495       .  S
C78          C79   1.551       .  S
C78          C84   1.544       .  S
C78          C82   1.539       .  S
C78         C306   1.544       .  S
C79          H86   1.080       .  S
C79          C80   1.361       .  D
C80          C81   1.534       .  S
C80         C222   1.486       .  S
C81          C85   1.533       .  S
C81          C83   1.541       .  S
C81          H87   1.109       .  S
C82          H88   1.085       .  S
C82          C83   1.368       .  D
C83         C213   1.491       .  S
C84          H89   1.086       .  S
C84          C85   1.367       .  D
C85         C237   1.489       .  S
C90          C91   1.542       .  S
C90          C96   1.544       .  S
C90          C94   1.540       .  S
C90         C330   1.538       .  S
C91          H98   1.086       .  S
C91          C92   1.362       .  D
C92          C93   1.534       .  S
C92         C261   1.482       .  S
C93          C97   1.536       .  S
C93          C95   1.541       .  S
C93          H99   1.103       .  S
C94         H100   1.085       .  S
C94          C95   1.377       .  D
C95         C210   1.507       .  S
C96         H101   1.084       .  S
C96          C97   1.358       .  D
C97         C198   1.470       .  S
C102        C103   1.536       .  S
C102        C108   1.549       .  S
C102        C106   1.537       .  S
C102        C354   1.535       .  S
C103        H110   1.086       .  S
C103        C104   1.361       .  D
C104        C105   1.531       .  S
C104        C174   1.483       .  S
C105        C109   1.540       .  S
C105        C107   1.536       .  S
C105        H111   1.104       .  S
C106        H112   1.086       .  S
C106        C107   1.356       .  D
C107        C186   1.465       .  S
C108        H113   1.083       .  S
C108        C109   1.377       .  D
C109        C273   1.506       .  S
C114        C115   1.530       .  S
C114        C120   1.543       .  S
C114        C118   1.552       .  S
C114        C321   1.541       .  S
C115        H122   1.087       .  S
C115        C116   1.355       .  D
C116        C117   1.539       .  S
C116        C201   1.472       .  S
C117        C121   1.546       .  S
C117        C119   1.539       .  S
C117        H123   1.105       .  S
C118        H124   1.080       .  S
C118        C119   1.367       .  D
C119        C162   1.497       .  S
C120        H125   1.085       .  S
C120        C121   1.374       .  D
C121        C177   1.505       .  S
C126        C127   1.552       .  S
C126        C132   1.546       .  S
C126        C130   1.544       .  S
C126        C381   1.553       .  S
C127        H134   1.081       .  S
C127        C128   1.362       .  D
C128        C129   1.537       .  S
C128        C150   1.490       .  S
C129        C133   1.533       .  S
C129        C131   1.545       .  S
C129        H135   1.110       .  S
C130        H136   1.084       .  S
C130        C131   1.373       .  D
C131        C165   1.503       .  S
C132        H137   1.086       .  S
C132        C133   1.367       .  D
C133        C225   1.488       .  S
C138        C139   1.541       .  S
C138        C144   1.551       .  S
C138        C142   1.531       .  S
C138        C342   1.533       .  S
C139        H146   1.083       .  S
C139        C140   1.366       .  D
C140        C141   1.539       .  S
C140        C249   1.481       .  S
C141        C145   1.539       .  S
C141        C143   1.535       .  S
C141        H147   1.111       .  S
C142        H148   1.087       .  S
C142        C143   1.357       .  D
C143        C189   1.469       .  S
C144        H149   1.086       .  S
C144        C145   1.368       .  D
C145        C153   1.493       .  S
C150        C151   1.401       .  A
C150        C155   1.415       .  A
C151        H160   1.076       .  S
C151        C152   1.404       .  A
C152        C153   1.412       .  A
C152        S156   1.799       .  S
C153        C154   1.405       .  A
C154        H161   1.084       .  S
C154        C155   1.404       .  A
C155        S157   1.804       .  S
S156        H159   1.407       .  S
S157        H158   1.402       .  S
C162        C163   1.406       .  A
C162        C167   1.412       .  A
C163        H172   1.084       .  S
C163        C164   1.406       .  A
C164        C165   1.422       .  A
C164        S168   1.803       .  S
C165        C166   1.404       .  A
C166        H173   1.074       .  S
C166        C167   1.394       .  A
C167        S169   1.796       .  S
S168        H171   1.395       .  S
S169        H170   1.406       .  S
C174        C175   1.399       .  A
C174        C179   1.411       .  A
C175        H184   1.084       .  S
C175        C176   1.396       .  A
C176        C177   1.423       .  A
C176        S180   1.796       .  S
C177        C178   1.412       .  A
C178        H185   1.083       .  S
C178        C179   1.400       .  A
C179        S181   1.804       .  S
S180        H183   1.386       .  S
S181        H182   1.403       .  S
C186        C187   1.397       .  A
C186        C191   1.407       .  A
C187        H196   1.084       .  S
C187        C188   1.393       .  A
C188        C189   1.408       .  A
C188        S192   1.795       .  S
C189        C190   1.402       .  A
C190        H197   1.084       .  S
C190        C191   1.396       .  A
C191        S193   1.800       .  S
S192        H195   1.404       .  S
S193        H194   1.404       .  S
C198        C199   1.399       .  A
C198        C203   1.409       .  A
C199        H208   1.084       .  S
C199        C200   1.399       .  A
C200        C201   1.418       .  A
C200        S204   1.809       .  S
C201        C202   1.400       .  A
C202        H209   1.084       .  S
C202        C203   1.396       .  A
C203        S205   1.806       .  S
S204        H207   1.399       .  S
S205        H206   1.403       .  S
C210        C211   1.410       .  A
C210        C215   1.425       .  A
C211        H220   1.082       .  S
C211        C212   1.398       .  A
C212        C213   1.414       .  A
C212        S216   1.802       .  S
C213        C214   1.400       .  A
C214        H221   1.082       .  S
C214        C215   1.400       .  A
C215        S217   1.804       .  S
S216        H219   1.403       .  S
S217        H218   1.407       .  S
C222        C223   1.402       .  A
C222        C227   1.410       .  A
C223        H232   1.084       .  S
C223        C224   1.399       .  A
C224        C225   1.414       .  A
C224        S228   1.794       .  S
C225        C226   1.403       .  A
C226        H233   1.084       .  S
C226        C227   1.400       .  A
C227        S229   1.795       .  S
S228        H231   1.401       .  S
S229        H230   1.406       .  S
C234        C235   1.402       .  A
C234        C239   1.418       .  A
C235        H244   1.084       .  S
C235        C236   1.400       .  A
C236        C237   1.415       .  A
C236        S240   1.798       .  S
C237        C238   1.401       .  A
C238        H245   1.084       .  S
C238        C239   1.398       .  A
C239        S241   1.801       .  S
S240        H243   1.402       .  S
S241        H242   1.401       .  S
C246        C247   1.406       .  A
C246        C251   1.417       .  A
C247        H256   1.083       .  S
C247        C248   1.397       .  A
C248        C249   1.415       .  A
C248        S252   1.803       .  S
C249        C250   1.399       .  A
C250        H257   1.084       .  S
C250        C251   1.396       .  A
C251        S253   1.793       .  S
S252        H255   1.400       .  S
S253        H254   1.398       .  S
C258        C259   1.401       .  A
C258        C263   1.417       .  A
C259        H268   1.084       .  S
C259        C260   1.397       .  A
C260        C261   1.411       .  A
C260        S264   1.797       .  S
C261        C262   1.401       .  A
C262        H269   1.084       .  S
C262        C263   1.401       .  A
C263        S265   1.798       .  S
S264        H267   1.407       .  S
S265        H266   1.401       .  S
C270        C271   1.400       .  A
C270        C275   1.419       .  A
C271        H280   1.077       .  S
C271        C272   1.402       .  A
C272        C273   1.423       .  A
C272        S276   1.802       .  S
C273        C274   1.407       .  A
C274        H281   1.083       .  S
C274        C275   1.398       .  A
C275        S277   1.806       .  S
S276        H279   1.407       .  S
S277        H278   1.398       .  S
C282        C283   1.400       .  A
C282        C287   1.416       .  A
C283        H292   1.080       .  S
C283        C284   1.399       .  A
C284        C285   1.413       .  A
C284        S288   1.800       .  S
C285        C286   1.404       .  A
C286        H293   1.084       .  S
C286        C287   1.407       .  A
C287        S289   1.804       .  S
S288        H291   1.406       .  S
S289        H290   1.404       .  S
C294        C295   1.400       .  A
C294        C299   1.409       .  A
C295        H304   1.084       .  S
C295        C296   1.404       .  A
C296        C297   1.427       .  A
C296        S300   1.805       .  S
C297        C298   1.413       .  A
C298        H305   1.080       .  S
C298        C299   1.395       .  A
C299        S301   1.805       .  S
S300        H303   1.401       .  S
S301        H302   1.407       .  S
C306        C307   1.411       .  A
C306        C311   1.425       .  A
C307        H316   1.074       .  S
C307        C308   1.394       .  A
C308        C309   1.411       .  A
C308        S312   1.804       .  S
C309        C310   1.401       .  A
C310        H317   1.082       .  S
C310        C311   1.406       .  A
C311        S313   1.809       .  S
S312        H315   1.408       .  S
S313        H314   1.407       .  S
C318        C319   1.396       .  A
C318        C323   1.404       .  A
C319        H328   1.083       .  S
C319        C320   1.403       .  A
C320        C321   1.427       .  A
C320        S324   1.811       .  S
C321        C322   1.415       .  A
C322        H329   1.075       .  S
C322        C323   1.399       .  A
C323        S325   1.805       .  S
S324        H327   1.406       .  S
S325        H326   1.406       .  S
C330        C331   1.408       .  A
C330        C335   1.420       .  A
C331        H340   1.080       .  S
C331        C332   1.395       .  A
C332        C333   1.417       .  A
C332        S336   1.802       .  S
C333        C334   1.405       .  A
C334        H341   1.082       .  S
C334        C335   1.408       .  A
C335        S337   1.809       .  S
S336        H339   1.408       .  S
S337        H338   1.407       .  S
C342        C343   1.408       .  A
C342        C347   1.424       .  A
C343        H352   1.082       .  S
C343        C344   1.398       .  A
C344        C345   1.417       .  A
C344        S348   1.800       .  S
C345        C346   1.402       .  A
C346        H353   1.083       .  S
C346        C347   1.396       .  A
C347        S349   1.799       .  S
S348        H351   1.408       .  S
S349        H350   1.405       .  S
C354        C355   1.415       .  A
C354        C359   1.424       .  A
C355        H364   1.082       .  S
C355        C356   1.398       .  A
C356        C357   1.407       .  A
C356        S360   1.805       .  S
C357        C358   1.399       .  A
C358        H365   1.084       .  S
C358        C359   1.399       .  A
C359        S361   1.804       .  S
S360        H363   1.406       .  S
S361        H362   1.404       .  S
C366        C367   1.415       .  A
C366        C371   1.429       .  A
C367        H376   1.076       .  S
C367        C368   1.405       .  A
C368        C369   1.407       .  A
C368        S372   1.804       .  S
C369        C370   1.393       .  A
C370        H377   1.083       .  S
C370        C371   1.401       .  A
C371        S373   1.808       .  S
S372        H375   1.406       .  S
S373        H374   1.406       .  S
C378        C379   1.405       .  A
C378        C383   1.415       .  A
C379        H388   1.081       .  S
C379        C380   1.410       .  A
C380        C381   1.424       .  A
C380        S384   1.807       .  S
C381        C382   1.412       .  A
C382        H389   1.076       .  S
C382        C383   1.401       .  A
C383        S385   1.801       .  S
S384        H387   1.407       .  S
S385        H386   1.408       .  S
C390        N408   1.351       .  A
C390        C427   1.469       .  S
C390        C767   1.497       .  S
N391        N408   1.324       .  A
N391        N413   1.319       .  A
N391      Co1206   2.091       .  S
C392        N417   1.340       .  A
C392        C430   1.459       .  S
C392        H437   1.082       .  S
H393        C434   1.078       .  S
C394        N418   1.340       .  A
C394        C398   1.456       .  S
C394        H423   1.082       .  S
Co395       N403   2.084       .  S
Co395       N824   2.087   1_556  S
Co395      N1189   2.087       .  S
Co395     Cl2384   2.446       .  S
N396        C434   1.335       .  A
N396        N403   1.317       .  A
N396      Co1953   2.069       .  S
Co397      N1952   2.067   1_455  S
Co397       N400   2.094       .  S
Co397      N2751   2.080   1_455  S
Co397      N1182   2.084       .  S
Co397      Cl828   2.452   1_455  S
C398        N436   1.351       .  A
C398        C758   1.472       .  S
N399        N406   1.318       .  A
N399        N429   1.321       .  A
N399      Co1210   2.072       .  S
N400        N418   1.319       .  A
N400        N436   1.326       .  A
N401        C430   1.347       .  A
N401        N411   1.323       .  A
H402        C427   1.081       .  S
N403        N424   1.323       .  A
N404        N422   1.318       .  A
N404        N409   1.326       .  A
N404      Co1175   2.078       .  S
C405        N409   1.350       .  A
C405        C433   1.460       .  S
C405        C683   1.477       .  S
N406        C421   1.342       .  A
N406      Co2762   2.081   1_455  S
C407        N435   1.340       .  A
C407        C410   1.456       .  S
C407        H441   1.081       .  S
C410        N431   1.348       .  A
C410        C707   1.465       .  S
N411        N417   1.321       .  A
N411      Co1173   2.082       .  S
N412        C438   1.345       .  A
N412        N414   1.319       .  A
N412      Co1984   2.097   1_455  S
N413        C427   1.344       .  A
N414        N442   1.321       .  A
N414       Co432   2.077       .  S
H415        C438   1.081       .  S
H416        C433   1.080       .  S
N417      Co2731   2.082       .  S
N418       Co821   2.080   1_556  S
N419        N431   1.324       .  A
N419        N435   1.320       .  A
N419       Co428   2.080       .  S
C420        N424   1.355       .  A
C420        C434   1.462       .  S
C420        C734   1.487       .  S
C421        C440   1.463       .  S
C421        H425   1.081       .  S
N422        C433   1.339       .  A
C426        N442   1.347       .  A
C426        C438   1.470       .  S
C426        C722   1.491       .  S
Co428      N1169   2.099   1_545  S
Co428      N2740   2.083   1_545  S
Co428      N1968   2.101       .  S
Co428     Cl1995   2.456       .  S
N429        C440   1.347       .  A
C430        C746   1.469       .  S
Co432      N1177   2.073   1_545  S
Co432       N807   2.081   1_545  S
Co432      Cl439   2.440   1_455  S
N435       Co784   2.084       .  S
Cl439     Co2340   2.446       .  S
Cl439      Co786   2.453   1_655  S
Cl439     Co1984   2.456       .  S
C440        C698   1.481       .  S
C443        C444   1.547       .  S
C443        C449   1.537       .  S
C443        C447   1.541       .  S
C443        C686   1.540       .  S
C444        H451   1.083       .  S
C444        C445   1.364       .  D
C445        C446   1.543       .  S
C445        C659   1.497       .  S
C446        C450   1.537       .  S
C446        C448   1.544       .  S
C446        H452   1.110       .  S
C447        H453   1.085       .  S
C447        C448   1.366       .  D
C448        C671   1.486       .  S
C449        H454   1.086       .  S
C449        C450   1.363       .  D
C450        C647   1.486       .  S
C455        C456   1.536       .  S
C455        C461   1.540       .  S
C455        C459   1.557       .  S
C455        C755   1.545       .  S
C456        H463   1.086       .  S
C456        C457   1.363       .  D
C457        C458   1.540       .  S
C457        C623   1.485       .  S
C458        C462   1.538       .  S
C458        C460   1.534       .  S
C458        H464   1.109       .  S
C459        H465   1.081       .  S
C459        C460   1.370       .  D
C460        C674   1.488       .  S
C461        H466   1.086       .  S
C461        C462   1.368       .  D
C462        C635   1.494       .  S
C467        C468   1.551       .  S
C467        C473   1.543       .  S
C467        C471   1.540       .  S
C467        C695   1.543       .  S
C468        H475   1.080       .  S
C468        C469   1.361       .  D
C469        C470   1.532       .  S
C469        C611   1.484       .  S
C470        C474   1.532       .  S
C470        C472   1.541       .  S
C470        H476   1.109       .  S
C471        H477   1.085       .  S
C471        C472   1.369       .  D
C472        C602   1.491       .  S
C473        H478   1.086       .  S
C473        C474   1.367       .  D
C474        C626   1.487       .  S
C479        C480   1.542       .  S
C479        C485   1.543       .  S
C479        C483   1.540       .  S
C479        C719   1.536       .  S
C480        H487   1.086       .  S
C480        C481   1.362       .  D
C481        C482   1.534       .  S
C481        C650   1.482       .  S
C482        C486   1.536       .  S
C482        C484   1.541       .  S
C482        H488   1.102       .  S
C483        H489   1.085       .  S
C483        C484   1.376       .  D
C484        C599   1.507       .  S
C485        H490   1.084       .  S
C485        C486   1.358       .  D
C486        C587   1.470       .  S
C491        C492   1.535       .  S
C491        C497   1.547       .  S
C491        C495   1.538       .  S
C491        C743   1.534       .  S
C492        H499   1.086       .  S
C492        C493   1.361       .  D
C493        C494   1.532       .  S
C493        C563   1.483       .  S
C494        C498   1.542       .  S
C494        C496   1.537       .  S
C494        H500   1.104       .  S
C495        H501   1.086       .  S
C495        C496   1.357       .  D
C496        C575   1.466       .  S
C497        H502   1.083       .  S
C497        C498   1.376       .  D
C498        C662   1.506       .  S
C503        C504   1.531       .  S
C503        C509   1.542       .  S
C503        C507   1.553       .  S
C503        C710   1.542       .  S
C504        H511   1.087       .  S
C504        C505   1.355       .  D
C505        C506   1.541       .  S
C505        C590   1.474       .  S
C506        C510   1.546       .  S
C506        C508   1.540       .  S
C506        H512   1.105       .  S
C507        H513   1.080       .  S
C507        C508   1.368       .  D
C508        C551   1.500       .  S
C509        H514   1.085       .  S
C509        C510   1.375       .  D
C510        C566   1.505       .  S
C515        C516   1.552       .  S
C515        C521   1.545       .  S
C515        C519   1.544       .  S
C515        C770   1.551       .  S
C516        H523   1.081       .  S
C516        C517   1.362       .  D
C517        C518   1.539       .  S
C517        C539   1.492       .  S
C518        C522   1.533       .  S
C518        C520   1.547       .  S
C518        H524   1.110       .  S
C519        H525   1.084       .  S
C519        C520   1.373       .  D
C520        C554   1.506       .  S
C521        H526   1.086       .  S
C521        C522   1.366       .  D
C522        C614   1.485       .  S
C527        C528   1.541       .  S
C527        C533   1.552       .  S
C527        C531   1.532       .  S
C527        C731   1.535       .  S
C528        H535   1.083       .  S
C528        C529   1.365       .  D
C529        C530   1.539       .  S
C529        C638   1.482       .  S
C530        C534   1.541       .  S
C530        C532   1.536       .  S
C530        H536   1.111       .  S
C531        H537   1.087       .  S
C531        C532   1.357       .  D
C532        C578   1.472       .  S
C533        H538   1.086       .  S
C533        C534   1.371       .  D
C534        C542   1.498       .  S
C539        C540   1.400       .  A
C539        C544   1.415       .  A
C540        H549   1.075       .  S
C540        C541   1.405       .  A
C541        C542   1.413       .  A
C541        S545   1.799       .  S
C542        C543   1.406       .  A
C543        H550   1.084       .  S
C543        C544   1.406       .  A
C544        S546   1.804       .  S
S545        H548   1.407       .  S
S546        H547   1.403       .  S
C551        C552   1.407       .  A
C551        C556   1.412       .  A
C552        H561   1.083       .  S
C552        C553   1.407       .  A
C553        C554   1.423       .  A
C553        S557   1.803       .  S
C554        C555   1.404       .  A
C555        H562   1.073       .  S
C555        C556   1.395       .  A
C556        S558   1.797       .  S
S557        H560   1.396       .  S
S558        H559   1.406       .  S
C563        C564   1.398       .  A
C563        C568   1.411       .  A
C564        H573   1.084       .  S
C564        C565   1.395       .  A
C565        C566   1.423       .  A
C565        S569   1.796       .  S
C566        C567   1.412       .  A
C567        H574   1.083       .  S
C567        C568   1.400       .  A
C568        S570   1.804       .  S
S569        H572   1.383       .  S
S570        H571   1.404       .  S
C575        C576   1.397       .  A
C575        C580   1.408       .  A
C576        H585   1.084       .  S
C576        C577   1.393       .  A
C577        C578   1.408       .  A
C577        S581   1.794       .  S
C578        C579   1.402       .  A
C579        H586   1.084       .  S
C579        C580   1.398       .  A
C580        S582   1.801       .  S
S581        H584   1.404       .  S
S582        H583   1.404       .  S
C587        C588   1.398       .  A
C587        C592   1.410       .  A
C588        H597   1.084       .  S
C588        C589   1.398       .  A
C589        C590   1.419       .  A
C589        S593   1.809       .  S
C590        C591   1.401       .  A
C591        H598   1.084       .  S
C591        C592   1.397       .  A
C592        S594   1.807       .  S
S593        H596   1.398       .  S
S594        H595   1.403       .  S
C599        C600   1.410       .  A
C599        C604   1.426       .  A
C600        H609   1.082       .  S
C600        C601   1.398       .  A
C601        C602   1.413       .  A
C601        S605   1.801       .  S
C602        C603   1.400       .  A
C603        H610   1.081       .  S
C603        C604   1.401       .  A
C604        S606   1.807       .  S
S605        H608   1.403       .  S
S606        H607   1.406       .  S
C611        C612   1.401       .  A
C611        C616   1.411       .  A
C612        H621   1.084       .  S
C612        C613   1.398       .  A
C613        C614   1.413       .  A
C613        S617   1.794       .  S
C614        C615   1.402       .  A
C615        H622   1.084       .  S
C615        C616   1.400       .  A
C616        S618   1.794       .  S
S617        H620   1.401       .  S
S618        H619   1.406       .  S
C623        C624   1.402       .  A
C623        C628   1.418       .  A
C624        H633   1.084       .  S
C624        C625   1.398       .  A
C625        C626   1.415       .  A
C625        S629   1.798       .  S
C626        C627   1.401       .  A
C627        H634   1.084       .  S
C627        C628   1.397       .  A
C628        S630   1.801       .  S
S629        H632   1.402       .  S
S630        H631   1.401       .  S
C635        C636   1.406       .  A
C635        C640   1.416       .  A
C636        H645   1.083       .  S
C636        C637   1.398       .  A
C637        C638   1.416       .  A
C637        S641   1.803       .  S
C638        C639   1.399       .  A
C639        H646   1.084       .  S
C639        C640   1.396       .  A
C640        S642   1.794       .  S
S641        H644   1.400       .  S
S642        H643   1.399       .  S
C647        C648   1.401       .  A
C647        C652   1.416       .  A
C648        H657   1.084       .  S
C648        C649   1.396       .  A
C649        C650   1.411       .  A
C649        S653   1.797       .  S
C650        C651   1.401       .  A
C651        H658   1.084       .  S
C651        C652   1.401       .  A
C652        S654   1.798       .  S
S653        H656   1.407       .  S
S654        H655   1.401       .  S
C659        C660   1.401       .  A
C659        C664   1.419       .  A
C660        H669   1.077       .  S
C660        C661   1.403       .  A
C661        C662   1.422       .  A
C661        S665   1.802       .  S
C662        C663   1.408       .  A
C663        H670   1.083       .  S
C663        C664   1.398       .  A
C664        S666   1.806       .  S
S665        H668   1.407       .  S
S666        H667   1.398       .  S
C671        C672   1.400       .  A
C671        C676   1.416       .  A
C672        H681   1.081       .  S
C672        C673   1.399       .  A
C673        C674   1.413       .  A
C673        S677   1.800       .  S
C674        C675   1.404       .  A
C675        H682   1.084       .  S
C675        C676   1.407       .  A
C676        S678   1.805       .  S
S677        H680   1.406       .  S
S678        H679   1.403       .  S
C683        C684   1.400       .  A
C683        C688   1.409       .  A
C684        H693   1.084       .  S
C684        C685   1.404       .  A
C685        C686   1.427       .  A
C685        S689   1.805       .  S
C686        C687   1.413       .  A
C687        H694   1.079       .  S
C687        C688   1.394       .  A
C688        S690   1.804       .  S
S689        H692   1.401       .  S
S690        H691   1.407       .  S
C695        C696   1.411       .  A
C695        C700   1.425       .  A
C696        H705   1.074       .  S
C696        C697   1.394       .  A
C697        C698   1.411       .  A
C697        S701   1.804       .  S
C698        C699   1.401       .  A
C699        H706   1.083       .  S
C699        C700   1.406       .  A
C700        S702   1.809       .  S
S701        H704   1.408       .  S
S702        H703   1.407       .  S
C707        C708   1.395       .  A
C707        C712   1.403       .  A
C708        H717   1.083       .  S
C708        C709   1.402       .  A
C709        C710   1.427       .  A
C709        S713   1.811       .  S
C710        C711   1.416       .  A
C711        H718   1.074       .  S
C711        C712   1.399       .  A
C712        S714   1.807       .  S
S713        H716   1.406       .  S
S714        H715   1.405       .  S
C719        C720   1.408       .  A
C719        C724   1.420       .  A
C720        H729   1.080       .  S
C720        C721   1.396       .  A
C721        C722   1.416       .  A
C721        S725   1.802       .  S
C722        C723   1.405       .  A
C723        H730   1.081       .  S
C723        C724   1.407       .  A
C724        S726   1.809       .  S
S725        H728   1.408       .  S
S726        H727   1.407       .  S
C731        C732   1.409       .  A
C731        C736   1.425       .  A
C732        H741   1.083       .  S
C732        C733   1.398       .  A
C733        C734   1.416       .  A
C733        S737   1.801       .  S
C734        C735   1.401       .  A
C735        H742   1.084       .  S
C735        C736   1.396       .  A
C736        S738   1.799       .  S
S737        H740   1.408       .  S
S738        H739   1.405       .  S
C743        C744   1.415       .  A
C743        C748   1.425       .  A
C744        H753   1.082       .  S
C744        C745   1.396       .  A
C745        C746   1.406       .  A
C745        S749   1.805       .  S
C746        C747   1.399       .  A
C747        H754   1.084       .  S
C747        C748   1.399       .  A
C748        S750   1.805       .  S
S749        H752   1.406       .  S
S750        H751   1.404       .  S
C755        C756   1.414       .  A
C755        C760   1.429       .  A
C756        H765   1.076       .  S
C756        C757   1.404       .  A
C757        C758   1.407       .  A
C757        S761   1.805       .  S
C758        C759   1.393       .  A
C759        H766   1.083       .  S
C759        C760   1.401       .  A
C760        S762   1.808       .  S
S761        H764   1.405       .  S
S762        H763   1.407       .  S
C767        C768   1.405       .  A
C767        C772   1.415       .  A
C768        H777   1.081       .  S
C768        C769   1.409       .  A
C769        C770   1.424       .  A
C769        S773   1.807       .  S
C770        C771   1.412       .  A
C771        H778   1.076       .  S
C771        C772   1.400       .  A
C772        S774   1.801       .  S
S773        H776   1.407       .  S
S774        H775   1.408       .  S
C779        N797   1.352       .  A
C779        C816   1.467       .  S
C779       C1156   1.497       .  S
N780        N797   1.324       .  A
N780        N802   1.319       .  A
C781        N806   1.340       .  A
C781        C819   1.460       .  S
C781        H826   1.082       .  S
H782        C823   1.077       .  S
C783        N807   1.340       .  A
C783        C787   1.456       .  S
C783        H812   1.081       .  S
Co784      N1191   2.093   1_545  S
Co784       N792   2.085   1_545  S
Co784     Cl1995   2.446       .  S
N785        C823   1.334       .  A
N785        N792   1.316       .  A
N785      Co2342   2.066   1_565  S
Co786      N2341   2.066   1_445  S
Co786       N789   2.094   1_545  S
Co786      N1584   2.081   1_455  S
C787        N825   1.351       .  A
C787       C1147   1.472       .  S
N788        N795   1.318       .  A
N788        N818   1.321       .  A
N789        N807   1.319       .  A
N789        N825   1.326       .  A
N790        C819   1.348       .  A
N790        N800   1.323       .  A
H791        C816   1.081       .  S
N792        N813   1.323       .  A
N793        N811   1.318       .  A
N793        N798   1.326       .  A
C794        N798   1.351       .  A
C794        C822   1.459       .  S
C794       C1072   1.478       .  S
N795        C810   1.342       .  A
N795      Co1595   2.081   1_465  S
C796        N824   1.342       .  A
C796        C799   1.458       .  S
C796        H830   1.081       .  S
C799        N820   1.347       .  A
C799       C1096   1.466       .  S
N800        N806   1.321       .  A
N801        C827   1.345       .  A
N801        N803   1.319       .  A
N801      Co2373   2.096   1_455  S
N802        C816   1.343       .  A
N802      Co1173   2.086   1_564  S
N803        N831   1.320       .  A
N803       Co821   2.074       .  S
H804        C827   1.081       .  S
H805        C822   1.080       .  S
N806      Co1564   2.082       .  S
N808        N820   1.323       .  A
N808        N824   1.320       .  A
N808       Co817   2.078       .  S
C809        N813   1.356       .  A
C809        C823   1.462       .  S
C809       C1123   1.488       .  S
C810        C829   1.463       .  S
C810        H814   1.081       .  S
N811        C822   1.338       .  A
N811      Co1210   2.080       .  S
C815        N831   1.347       .  A
C815        C827   1.470       .  S
C815       C1111   1.490       .  S
Co817      N1573   2.084       .  S
Co817      N2357   2.097       .  S
Co817     Cl2384   2.454   1_554  S
N818        C829   1.347       .  A
C819       C1135   1.471       .  S
Co821      N1200   2.077   1_554  S
Co821      Cl828   2.441   1_454  S
Cl828     Co1951   2.447       .  S
Cl828     Co2373   2.454   1_556  S
C829       C1087   1.481       .  S
C832        C833   1.547       .  S
C832        C838   1.538       .  S
C832        C836   1.540       .  S
C832       C1075   1.540       .  S
C833        H840   1.082       .  S
C833        C834   1.365       .  D
C834        C835   1.542       .  S
C834       C1048   1.496       .  S
C835        C839   1.538       .  S
C835        C837   1.544       .  S
C835        H841   1.110       .  S
C836        H842   1.085       .  S
C836        C837   1.365       .  D
C837       C1060   1.485       .  S
C838        H843   1.086       .  S
C838        C839   1.364       .  D
C839       C1036   1.488       .  S
C844        C845   1.537       .  S
C844        C850   1.540       .  S
C844        C848   1.556       .  S
C844       C1144   1.546       .  S
C845        H852   1.086       .  S
C845        C846   1.363       .  D
C846        C847   1.541       .  S
C846       C1012   1.488       .  S
C847        C851   1.539       .  S
C847        C849   1.534       .  S
C847        H853   1.109       .  S
C848        H854   1.081       .  S
C848        C849   1.370       .  D
C849       C1063   1.487       .  S
C850        H855   1.086       .  S
C850        C851   1.368       .  D
C851       C1024   1.496       .  S
C856        C857   1.550       .  S
C856        C862   1.544       .  S
C856        C860   1.539       .  S
C856       C1084   1.543       .  S
C857        H864   1.080       .  S
C857        C858   1.360       .  D
C858        C859   1.534       .  S
C858       C1000   1.485       .  S
C859        C863   1.534       .  S
C859        C861   1.541       .  S
C859        H865   1.109       .  S
C860        H866   1.085       .  S
C860        C861   1.368       .  D
C861        C991   1.491       .  S
C862        H867   1.086       .  S
C862        C863   1.367       .  D
C863       C1015   1.490       .  S
C868        C869   1.542       .  S
C868        C874   1.543       .  S
C868        C872   1.540       .  S
C868       C1108   1.536       .  S
C869        H876   1.086       .  S
C869        C870   1.362       .  D
C870        C871   1.533       .  S
C870       C1039   1.482       .  S
C871        C875   1.536       .  S
C871        C873   1.541       .  S
C871        H877   1.103       .  S
C872        H878   1.085       .  S
C872        C873   1.377       .  D
C873        C988   1.507       .  S
C874        H879   1.084       .  S
C874        C875   1.357       .  D
C875        C976   1.468       .  S
C880        C881   1.535       .  S
C880        C886   1.548       .  S
C880        C884   1.538       .  S
C880       C1132   1.535       .  S
C881        H888   1.086       .  S
C881        C882   1.361       .  D
C882        C883   1.531       .  S
C882        C952   1.482       .  S
C883        C887   1.540       .  S
C883        C885   1.538       .  S
C883        H889   1.104       .  S
C884        H890   1.086       .  S
C884        C885   1.357       .  D
C885        C964   1.467       .  S
C886        H891   1.082       .  S
C886        C887   1.377       .  D
C887       C1051   1.506       .  S
C892        C893   1.529       .  S
C892        C898   1.542       .  S
C892        C896   1.552       .  S
C892       C1099   1.540       .  S
C893        H900   1.087       .  S
C893        C894   1.354       .  D
C894        C895   1.540       .  S
C894        C979   1.471       .  S
C895        C899   1.546       .  S
C895        C897   1.540       .  S
C895        H901   1.105       .  S
C896        H902   1.080       .  S
C896        C897   1.367       .  D
C897        C940   1.498       .  S
C898        H903   1.085       .  S
C898        C899   1.374       .  D
C899        C955   1.505       .  S
C904        C905   1.552       .  S
C904        C910   1.545       .  S
C904        C908   1.544       .  S
C904       C1159   1.550       .  S
C905        H912   1.081       .  S
C905        C906   1.362       .  D
C906        C907   1.538       .  S
C906        C928   1.490       .  S
C907        C911   1.533       .  S
C907        C909   1.546       .  S
C907        H913   1.110       .  S
C908        H914   1.084       .  S
C908        C909   1.373       .  D
C909        C943   1.503       .  S
C910        H915   1.086       .  S
C910        C911   1.367       .  D
C911       C1003   1.487       .  S
C916        C917   1.541       .  S
C916        C922   1.551       .  S
C916        C920   1.532       .  S
C916       C1120   1.534       .  S
C917        H924   1.084       .  S
C917        C918   1.366       .  D
C918        C919   1.539       .  S
C918       C1027   1.483       .  S
C919        C923   1.540       .  S
C919        C921   1.535       .  S
C919        H925   1.111       .  S
C920        H926   1.087       .  S
C920        C921   1.357       .  D
C921        C967   1.471       .  S
C922        H927   1.086       .  S
C922        C923   1.370       .  D
C923        C931   1.495       .  S
C928        C929   1.400       .  A
C928        C933   1.415       .  A
C929        H938   1.078       .  S
C929        C930   1.404       .  A
C930        C931   1.413       .  A
C930        S934   1.799       .  S
C931        C932   1.405       .  A
C932        H939   1.084       .  S
C932        C933   1.405       .  A
C933        S935   1.804       .  S
S934        H937   1.407       .  S
S935        H936   1.403       .  S
C940        C941   1.407       .  A
C940        C945   1.412       .  A
C941        H950   1.084       .  S
C941        C942   1.406       .  A
C942        C943   1.423       .  A
C942        S946   1.802       .  S
C943        C944   1.403       .  A
C944        H951   1.076       .  S
C944        C945   1.393       .  A
C945        S947   1.796       .  S
S946        H949   1.395       .  S
S947        H948   1.406       .  S
C952        C953   1.399       .  A
C952        C957   1.410       .  A
C953        H962   1.084       .  S
C953        C954   1.396       .  A
C954        C955   1.423       .  A
C954        S958   1.796       .  S
C955        C956   1.412       .  A
C956        H963   1.082       .  S
C956        C957   1.400       .  A
C957        S959   1.804       .  S
S958        H961   1.384       .  S
S959        H960   1.404       .  S
C964        C965   1.397       .  A
C964        C969   1.408       .  A
C965        H974   1.084       .  S
C965        C966   1.393       .  A
C966        C967   1.407       .  A
C966        S970   1.794       .  S
C967        C968   1.402       .  A
C968        H975   1.084       .  S
C968        C969   1.398       .  A
C969        S971   1.801       .  S
S970        H973   1.404       .  S
S971        H972   1.403       .  S
C976        C977   1.399       .  A
C976        C981   1.409       .  A
C977        H986   1.084       .  S
C977        C978   1.398       .  A
C978        C979   1.418       .  A
C978        S982   1.810       .  S
C979        C980   1.400       .  A
C980        H987   1.084       .  S
C980        C981   1.396       .  A
C981        S983   1.807       .  S
S982        H985   1.399       .  S
S983        H984   1.403       .  S
C988        C989   1.410       .  A
C988        C993   1.425       .  A
C989        H998   1.082       .  S
C989        C990   1.398       .  A
C990        C991   1.413       .  A
C990        S994   1.802       .  S
C991        C992   1.400       .  A
C992        H999   1.082       .  S
C992        C993   1.401       .  A
C993        S995   1.806       .  S
S994        H997   1.402       .  S
S995        H996   1.406       .  S
C1000      C1001   1.402       .  A
C1000      C1005   1.410       .  A
C1001      H1010   1.084       .  S
C1001      C1002   1.398       .  A
C1002      C1003   1.414       .  A
C1002      S1006   1.795       .  S
C1003      C1004   1.403       .  A
C1004      H1011   1.084       .  S
C1004      C1005   1.400       .  A
C1005      S1007   1.794       .  S
S1006      H1009   1.400       .  S
S1007      H1008   1.406       .  S
C1012      C1013   1.402       .  A
C1012      C1017   1.418       .  A
C1013      H1022   1.084       .  S
C1013      C1014   1.400       .  A
C1014      C1015   1.414       .  A
C1014      S1018   1.797       .  S
C1015      C1016   1.402       .  A
C1016      H1023   1.084       .  S
C1016      C1017   1.399       .  A
C1017      S1019   1.801       .  S
S1018      H1021   1.402       .  S
S1019      H1020   1.400       .  S
C1024      C1025   1.406       .  A
C1024      C1029   1.416       .  A
C1025      H1034   1.083       .  S
C1025      C1026   1.398       .  A
C1026      C1027   1.416       .  A
C1026      S1030   1.803       .  S
C1027      C1028   1.399       .  A
C1028      H1035   1.084       .  S
C1028      C1029   1.397       .  A
C1029      S1031   1.793       .  S
S1030      H1033   1.400       .  S
S1031      H1032   1.398       .  S
C1036      C1037   1.401       .  A
C1036      C1041   1.417       .  A
C1037      H1046   1.084       .  S
C1037      C1038   1.397       .  A
C1038      C1039   1.411       .  A
C1038      S1042   1.797       .  S
C1039      C1040   1.401       .  A
C1040      H1047   1.084       .  S
C1040      C1041   1.401       .  A
C1041      S1043   1.798       .  S
S1042      H1045   1.407       .  S
S1043      H1044   1.401       .  S
C1048      C1049   1.401       .  A
C1048      C1053   1.418       .  A
C1049      H1058   1.078       .  S
C1049      C1050   1.403       .  A
C1050      C1051   1.422       .  A
C1050      S1054   1.802       .  S
C1051      C1052   1.407       .  A
C1052      H1059   1.083       .  S
C1052      C1053   1.397       .  A
C1053      S1055   1.805       .  S
S1054      H1057   1.407       .  S
S1055      H1056   1.398       .  S
C1060      C1061   1.401       .  A
C1060      C1065   1.416       .  A
C1061      H1070   1.081       .  S
C1061      C1062   1.399       .  A
C1062      C1063   1.412       .  A
C1062      S1066   1.800       .  S
C1063      C1064   1.404       .  A
C1064      H1071   1.084       .  S
C1064      C1065   1.406       .  A
C1065      S1067   1.805       .  S
S1066      H1069   1.406       .  S
S1067      H1068   1.403       .  S
C1072      C1073   1.400       .  A
C1072      C1077   1.410       .  A
C1073      H1082   1.084       .  S
C1073      C1074   1.404       .  A
C1074      C1075   1.428       .  A
C1074      S1078   1.806       .  S
C1075      C1076   1.413       .  A
C1076      H1083   1.079       .  S
C1076      C1077   1.395       .  A
C1077      S1079   1.805       .  S
S1078      H1081   1.400       .  S
S1079      H1080   1.407       .  S
C1084      C1085   1.411       .  A
C1084      C1089   1.424       .  A
C1085      H1094   1.074       .  S
C1085      C1086   1.394       .  A
C1086      C1087   1.411       .  A
C1086      S1090   1.804       .  S
C1087      C1088   1.401       .  A
C1088      H1095   1.083       .  S
C1088      C1089   1.406       .  A
C1089      S1091   1.808       .  S
S1090      H1093   1.408       .  S
S1091      H1092   1.407       .  S
C1096      C1097   1.395       .  A
C1096      C1101   1.403       .  A
C1097      H1106   1.083       .  S
C1097      C1098   1.402       .  A
C1098      C1099   1.427       .  A
C1098      S1102   1.812       .  S
C1099      C1100   1.415       .  A
C1100      H1107   1.075       .  S
C1100      C1101   1.399       .  A
C1101      S1103   1.805       .  S
S1102      H1105   1.406       .  S
S1103      H1104   1.406       .  S
C1108      C1109   1.408       .  A
C1108      C1113   1.420       .  A
C1109      H1118   1.080       .  S
C1109      C1110   1.395       .  A
C1110      C1111   1.417       .  A
C1110      S1114   1.802       .  S
C1111      C1112   1.405       .  A
C1112      H1119   1.081       .  S
C1112      C1113   1.406       .  A
C1113      S1115   1.809       .  S
S1114      H1117   1.408       .  S
S1115      H1116   1.407       .  S
C1120      C1121   1.409       .  A
C1120      C1125   1.424       .  A
C1121      H1130   1.082       .  S
C1121      C1122   1.398       .  A
C1122      C1123   1.417       .  A
C1122      S1126   1.800       .  S
C1123      C1124   1.402       .  A
C1124      H1131   1.084       .  S
C1124      C1125   1.396       .  A
C1125      S1127   1.799       .  S
S1126      H1129   1.408       .  S
S1127      H1128   1.405       .  S
C1132      C1133   1.415       .  A
C1132      C1137   1.425       .  A
C1133      H1142   1.082       .  S
C1133      C1134   1.397       .  A
C1134      C1135   1.406       .  A
C1134      S1138   1.805       .  S
C1135      C1136   1.400       .  A
C1136      H1143   1.084       .  S
C1136      C1137   1.399       .  A
C1137      S1139   1.804       .  S
S1138      H1141   1.406       .  S
S1139      H1140   1.405       .  S
C1144      C1145   1.415       .  A
C1144      C1149   1.429       .  A
C1145      H1154   1.077       .  S
C1145      C1146   1.405       .  A
C1146      C1147   1.407       .  A
C1146      S1150   1.804       .  S
C1147      C1148   1.393       .  A
C1148      H1155   1.083       .  S
C1148      C1149   1.401       .  A
C1149      S1151   1.808       .  S
S1150      H1153   1.406       .  S
S1151      H1152   1.407       .  S
C1156      C1157   1.406       .  A
C1156      C1161   1.415       .  A
C1157      H1166   1.081       .  S
C1157      C1158   1.409       .  A
C1158      C1159   1.423       .  A
C1158      S1162   1.807       .  S
C1159      C1160   1.411       .  A
C1160      H1167   1.076       .  S
C1160      C1161   1.400       .  A
C1161      S1163   1.801       .  S
S1162      H1165   1.407       .  S
S1163      H1164   1.408       .  S
C1168      N1186   1.353       .  A
C1168      C1205   1.469       .  S
C1168      C1545   1.501       .  S
N1169      N1186   1.325       .  A
N1169      N1191   1.319       .  A
C1170      N1195   1.340       .  A
C1170      C1208   1.459       .  S
C1170      H1215   1.082       .  S
H1171      C1212   1.077       .  S
C1172      N1196   1.340       .  A
C1172      C1176   1.456       .  S
C1172      H1201   1.081       .  S
Co1173     N1181   2.089   1_545  S
Co1173    Cl1606   2.447       .  S
N1174      C1212   1.334       .  A
N1174      N1181   1.316       .  A
N1174     Co2731   2.064   1_565  S
Co1175     N2730   2.063   1_445  S
Co1175     N1178   2.095   1_545  S
Co1175     N1973   2.082   1_455  S
C1176      N1214   1.352       .  A
C1176      C1536   1.473       .  S
N1177      N1184   1.318       .  A
N1177      N1207   1.320       .  A
N1178      N1196   1.319       .  A
N1178      N1214   1.327       .  A
N1179      C1208   1.348       .  A
N1179      N1189   1.323       .  A
H1180      C1205   1.081       .  S
N1181      N1202   1.324       .  A
N1182      N1200   1.318       .  A
N1182      N1187   1.326       .  A
C1183      N1187   1.351       .  A
C1183      C1211   1.458       .  S
C1183      C1461   1.478       .  S
N1184      C1199   1.342       .  A
N1184     Co1984   2.079   1_465  S
C1185      N1213   1.342       .  A
C1185      C1188   1.458       .  S
C1185      H1219   1.081       .  S
C1188      N1209   1.348       .  A
C1188      C1485   1.468       .  S
N1189      N1195   1.321       .  A
N1190      C1216   1.345       .  A
N1190      N1192   1.319       .  A
N1190     Co2762   2.097   1_455  S
N1191      C1205   1.344       .  A
N1192      N1220   1.320       .  A
N1192     Co1210   2.075       .  S
H1193      C1216   1.081       .  S
H1194      C1211   1.080       .  S
N1195     Co1953   2.081       .  S
N1197      N1209   1.324       .  A
N1197      N1213   1.320       .  A
N1197     Co1206   2.079       .  S
C1198      N1202   1.356       .  A
C1198      C1212   1.462       .  S
C1198      C1512   1.488       .  S
C1199      C1218   1.462       .  S
C1199      H1203   1.081       .  S
N1200      C1211   1.338       .  A
C1204      N1220   1.347       .  A
C1204      C1216   1.471       .  S
C1204      C1500   1.491       .  S
Co1206     N1962   2.083       .  S
Co1206     N2746   2.096       .  S
Co1206    Cl2773   2.455       .  S
N1207      C1218   1.347       .  A
C1208      C1524   1.470       .  S
Co1210    Cl1217   2.440   1_455  S
Cl1217    Co1562   2.447       .  S
Cl1217    Co2762   2.455       .  S
C1218      C1476   1.479       .  S
C1221      C1222   1.547       .  S
C1221      C1227   1.537       .  S
C1221      C1225   1.540       .  S
C1221      C1464   1.540       .  S
C1222      H1229   1.083       .  S
C1222      C1223   1.364       .  D
C1223      C1224   1.543       .  S
C1223      C1437   1.495       .  S
C1224      C1228   1.540       .  S
C1224      C1226   1.544       .  S
C1224      H1230   1.110       .  S
C1225      H1231   1.085       .  S
C1225      C1226   1.365       .  D
C1226      C1449   1.486       .  S
C1227      H1232   1.086       .  S
C1227      C1228   1.364       .  D
C1228      C1425   1.489       .  S
C1233      C1234   1.536       .  S
C1233      C1239   1.541       .  S
C1233      C1237   1.557       .  S
C1233      C1533   1.546       .  S
C1234      H1241   1.086       .  S
C1234      C1235   1.363       .  D
C1235      C1236   1.540       .  S
C1235      C1401   1.486       .  S
C1236      C1240   1.537       .  S
C1236      C1238   1.533       .  S
C1236      H1242   1.109       .  S
C1237      H1243   1.082       .  S
C1237      C1238   1.371       .  D
C1238      C1452   1.488       .  S
C1239      H1244   1.086       .  S
C1239      C1240   1.368       .  D
C1240      C1413   1.494       .  S
C1245      C1246   1.550       .  S
C1245      C1251   1.543       .  S
C1245      C1249   1.539       .  S
C1245      C1473   1.541       .  S
C1246      H1253   1.080       .  S
C1246      C1247   1.360       .  D
C1247      C1248   1.534       .  S
C1247      C1389   1.485       .  S
C1248      C1252   1.534       .  S
C1248      C1250   1.540       .  S
C1248      H1254   1.109       .  S
C1249      H1255   1.085       .  S
C1249      C1250   1.368       .  D
C1250      C1380   1.489       .  S
C1251      H1256   1.086       .  S
C1251      C1252   1.366       .  D
C1252      C1404   1.488       .  S
C1257      C1258   1.542       .  S
C1257      C1263   1.543       .  S
C1257      C1261   1.539       .  S
C1257      C1497   1.536       .  S
C1258      H1265   1.085       .  S
C1258      C1259   1.363       .  D
C1259      C1260   1.535       .  S
C1259      C1428   1.485       .  S
C1260      C1264   1.535       .  S
C1260      C1262   1.541       .  S
C1260      H1266   1.103       .  S
C1261      H1267   1.085       .  S
C1261      C1262   1.376       .  D
C1262      C1377   1.507       .  S
C1263      H1268   1.084       .  S
C1263      C1264   1.358       .  D
C1264      C1365   1.468       .  S
C1269      C1270   1.535       .  S
C1269      C1275   1.547       .  S
C1269      C1273   1.538       .  S
C1269      C1521   1.534       .  S
C1270      H1277   1.086       .  S
C1270      C1271   1.361       .  D
C1271      C1272   1.531       .  S
C1271      C1341   1.482       .  S
C1272      C1276   1.540       .  S
C1272      C1274   1.537       .  S
C1272      H1278   1.104       .  S
C1273      H1279   1.086       .  S
C1273      C1274   1.357       .  D
C1274      C1353   1.467       .  S
C1275      H1280   1.083       .  S
C1275      C1276   1.376       .  D
C1276      C1440   1.505       .  S
C1281      C1282   1.530       .  S
C1281      C1287   1.542       .  S
C1281      C1285   1.552       .  S
C1281      C1488   1.542       .  S
C1282      H1289   1.087       .  S
C1282      C1283   1.355       .  D
C1283      C1284   1.540       .  S
C1283      C1368   1.471       .  S
C1284      C1288   1.546       .  S
C1284      C1286   1.540       .  S
C1284      H1290   1.105       .  S
C1285      H1291   1.080       .  S
C1285      C1286   1.368       .  D
C1286      C1329   1.499       .  S
C1287      H1292   1.085       .  S
C1287      C1288   1.374       .  D
C1288      C1344   1.504       .  S
C1293      C1294   1.552       .  S
C1293      C1299   1.546       .  S
C1293      C1297   1.543       .  S
C1293      C1548   1.553       .  S
C1294      H1301   1.081       .  S
C1294      C1295   1.362       .  D
C1295      C1296   1.537       .  S
C1295      C1317   1.490       .  S
C1296      C1300   1.533       .  S
C1296      C1298   1.545       .  S
C1296      H1302   1.110       .  S
C1297      H1303   1.084       .  S
C1297      C1298   1.373       .  D
C1298      C1332   1.503       .  S
C1299      H1304   1.086       .  S
C1299      C1300   1.368       .  D
C1300      C1392   1.487       .  S
C1305      C1306   1.540       .  S
C1305      C1311   1.552       .  S
C1305      C1309   1.532       .  S
C1305      C1509   1.534       .  S
C1306      H1313   1.083       .  S
C1306      C1307   1.366       .  D
C1307      C1308   1.539       .  S
C1307      C1416   1.482       .  S
C1308      C1312   1.539       .  S
C1308      C1310   1.535       .  S
C1308      H1314   1.111       .  S
C1309      H1315   1.087       .  S
C1309      C1310   1.357       .  D
C1310      C1356   1.471       .  S
C1311      H1316   1.086       .  S
C1311      C1312   1.369       .  D
C1312      C1320   1.495       .  S
C1317      C1318   1.400       .  A
C1317      C1322   1.415       .  A
C1318      H1327   1.078       .  S
C1318      C1319   1.403       .  A
C1319      C1320   1.413       .  A
C1319      S1323   1.798       .  S
C1320      C1321   1.405       .  A
C1321      H1328   1.084       .  S
C1321      C1322   1.405       .  A
C1322      S1324   1.804       .  S
S1323      H1326   1.407       .  S
S1324      H1325   1.403       .  S
C1329      C1330   1.407       .  A
C1329      C1334   1.412       .  A
C1330      H1339   1.084       .  S
C1330      C1331   1.406       .  A
C1331      C1332   1.422       .  A
C1331      S1335   1.802       .  S
C1332      C1333   1.403       .  A
C1333      H1340   1.076       .  S
C1333      C1334   1.394       .  A
C1334      S1336   1.796       .  S
S1335      H1338   1.396       .  S
S1336      H1337   1.406       .  S
C1341      C1342   1.399       .  A
C1341      C1346   1.410       .  A
C1342      H1351   1.084       .  S
C1342      C1343   1.395       .  A
C1343      C1344   1.423       .  A
C1343      S1347   1.797       .  S
C1344      C1345   1.412       .  A
C1345      H1352   1.083       .  S
C1345      C1346   1.400       .  A
C1346      S1348   1.804       .  S
S1347      H1350   1.384       .  S
S1348      H1349   1.404       .  S
C1353      C1354   1.397       .  A
C1353      C1358   1.408       .  A
C1354      H1363   1.084       .  S
C1354      C1355   1.393       .  A
C1355      C1356   1.406       .  A
C1355      S1359   1.794       .  S
C1356      C1357   1.403       .  A
C1357      H1364   1.084       .  S
C1357      C1358   1.399       .  A
C1358      S1360   1.802       .  S
S1359      H1362   1.405       .  S
S1360      H1361   1.404       .  S
C1365      C1366   1.398       .  A
C1365      C1370   1.409       .  A
C1366      H1375   1.084       .  S
C1366      C1367   1.398       .  A
C1367      C1368   1.418       .  A
C1367      S1371   1.809       .  S
C1368      C1369   1.400       .  A
C1369      H1376   1.084       .  S
C1369      C1370   1.396       .  A
C1370      S1372   1.807       .  S
S1371      H1374   1.399       .  S
S1372      H1373   1.403       .  S
C1377      C1378   1.410       .  A
C1377      C1382   1.426       .  A
C1378      H1387   1.082       .  S
C1378      C1379   1.398       .  A
C1379      C1380   1.413       .  A
C1379      S1383   1.802       .  S
C1380      C1381   1.400       .  A
C1381      H1388   1.082       .  S
C1381      C1382   1.401       .  A
C1382      S1384   1.806       .  S
S1383      H1386   1.402       .  S
S1384      H1385   1.407       .  S
C1389      C1390   1.402       .  A
C1389      C1394   1.410       .  A
C1390      H1399   1.084       .  S
C1390      C1391   1.398       .  A
C1391      C1392   1.413       .  A
C1391      S1395   1.794       .  S
C1392      C1393   1.403       .  A
C1393      H1400   1.084       .  S
C1393      C1394   1.400       .  A
C1394      S1396   1.794       .  S
S1395      H1398   1.402       .  S
S1396      H1397   1.406       .  S
C1401      C1402   1.402       .  A
C1401      C1406   1.418       .  A
C1402      H1411   1.084       .  S
C1402      C1403   1.399       .  A
C1403      C1404   1.414       .  A
C1403      S1407   1.797       .  S
C1404      C1405   1.402       .  A
C1405      H1412   1.084       .  S
C1405      C1406   1.398       .  A
C1406      S1408   1.802       .  S
S1407      H1410   1.402       .  S
S1408      H1409   1.400       .  S
C1413      C1414   1.406       .  A
C1413      C1418   1.416       .  A
C1414      H1423   1.083       .  S
C1414      C1415   1.397       .  A
C1415      C1416   1.415       .  A
C1415      S1419   1.803       .  S
C1416      C1417   1.399       .  A
C1417      H1424   1.084       .  S
C1417      C1418   1.396       .  A
C1418      S1420   1.794       .  S
S1419      H1422   1.399       .  S
S1420      H1421   1.398       .  S
C1425      C1426   1.401       .  A
C1425      C1430   1.418       .  A
C1426      H1435   1.084       .  S
C1426      C1427   1.397       .  A
C1427      C1428   1.411       .  A
C1427      S1431   1.797       .  S
C1428      C1429   1.402       .  A
C1429      H1436   1.084       .  S
C1429      C1430   1.402       .  A
C1430      S1432   1.798       .  S
S1431      H1434   1.407       .  S
S1432      H1433   1.400       .  S
C1437      C1438   1.400       .  A
C1437      C1442   1.418       .  A
C1438      H1447   1.078       .  S
C1438      C1439   1.403       .  A
C1439      C1440   1.422       .  A
C1439      S1443   1.801       .  S
C1440      C1441   1.407       .  A
C1441      H1448   1.083       .  S
C1441      C1442   1.397       .  A
C1442      S1444   1.805       .  S
S1443      H1446   1.407       .  S
S1444      H1445   1.398       .  S
C1449      C1450   1.401       .  A
C1449      C1454   1.416       .  A
C1450      H1459   1.081       .  S
C1450      C1451   1.400       .  A
C1451      C1452   1.413       .  A
C1451      S1455   1.800       .  S
C1452      C1453   1.403       .  A
C1453      H1460   1.084       .  S
C1453      C1454   1.406       .  A
C1454      S1456   1.805       .  S
S1455      H1458   1.406       .  S
S1456      H1457   1.402       .  S
C1461      C1462   1.400       .  A
C1461      C1466   1.410       .  A
C1462      H1471   1.084       .  S
C1462      C1463   1.404       .  A
C1463      C1464   1.427       .  A
C1463      S1467   1.805       .  S
C1464      C1465   1.413       .  A
C1465      H1472   1.079       .  S
C1465      C1466   1.395       .  A
C1466      S1468   1.805       .  S
S1467      H1470   1.401       .  S
S1468      H1469   1.407       .  S
C1473      C1474   1.410       .  A
C1473      C1478   1.424       .  A
C1474      H1483   1.074       .  S
C1474      C1475   1.393       .  A
C1475      C1476   1.411       .  A
C1475      S1479   1.804       .  S
C1476      C1477   1.401       .  A
C1477      H1484   1.082       .  S
C1477      C1478   1.406       .  A
C1478      S1480   1.809       .  S
S1479      H1482   1.408       .  S
S1480      H1481   1.406       .  S
C1485      C1486   1.396       .  A
C1485      C1490   1.405       .  A
C1486      H1495   1.083       .  S
C1486      C1487   1.402       .  A
C1487      C1488   1.427       .  A
C1487      S1491   1.811       .  S
C1488      C1489   1.415       .  A
C1489      H1496   1.074       .  S
C1489      C1490   1.400       .  A
C1490      S1492   1.808       .  S
S1491      H1494   1.406       .  S
S1492      H1493   1.404       .  S
C1497      C1498   1.407       .  A
C1497      C1502   1.420       .  A
C1498      H1507   1.080       .  S
C1498      C1499   1.395       .  A
C1499      C1500   1.417       .  A
C1499      S1503   1.802       .  S
C1500      C1501   1.405       .  A
C1501      H1508   1.082       .  S
C1501      C1502   1.407       .  A
C1502      S1504   1.808       .  S
S1503      H1506   1.408       .  S
S1504      H1505   1.407       .  S
C1509      C1510   1.408       .  A
C1509      C1514   1.425       .  A
C1510      H1519   1.082       .  S
C1510      C1511   1.397       .  A
C1511      C1512   1.417       .  A
C1511      S1515   1.800       .  S
C1512      C1513   1.402       .  A
C1513      H1520   1.084       .  S
C1513      C1514   1.397       .  A
C1514      S1516   1.799       .  S
S1515      H1518   1.408       .  S
S1516      H1517   1.405       .  S
C1521      C1522   1.415       .  A
C1521      C1526   1.425       .  A
C1522      H1531   1.082       .  S
C1522      C1523   1.396       .  A
C1523      C1524   1.406       .  A
C1523      S1527   1.805       .  S
C1524      C1525   1.399       .  A
C1525      H1532   1.084       .  S
C1525      C1526   1.399       .  A
C1526      S1528   1.804       .  S
S1527      H1530   1.406       .  S
S1528      H1529   1.405       .  S
C1533      C1534   1.415       .  A
C1533      C1538   1.429       .  A
C1534      H1543   1.077       .  S
C1534      C1535   1.406       .  A
C1535      C1536   1.407       .  A
C1535      S1539   1.805       .  S
C1536      C1537   1.393       .  A
C1537      H1544   1.083       .  S
C1537      C1538   1.401       .  A
C1538      S1540   1.809       .  S
S1539      H1542   1.405       .  S
S1540      H1541   1.406       .  S
C1545      C1546   1.406       .  A
C1545      C1550   1.415       .  A
C1546      H1555   1.081       .  S
C1546      C1547   1.411       .  A
C1547      C1548   1.423       .  A
C1547      S1551   1.808       .  S
C1548      C1549   1.412       .  A
C1549      H1556   1.076       .  S
C1549      C1550   1.401       .  A
C1550      S1552   1.801       .  S
S1551      H1554   1.406       .  S
S1552      H1553   1.408       .  S
C1557      N1575   1.351       .  A
C1557      C1594   1.468       .  S
C1557      C1934   1.496       .  S
N1558      N1575   1.324       .  A
N1558      N1580   1.319       .  A
N1558     Co2373   2.090       .  S
C1559      N1584   1.340       .  A
C1559      C1597   1.459       .  S
C1559      H1604   1.082       .  S
H1560      C1601   1.078       .  S
C1561      N1585   1.340       .  A
C1561      C1565   1.455       .  S
C1561      H1590   1.081       .  S
Co1562     N1969   2.092       .  S
Co1562     N1570   2.086       .  S
Co1562     N2769   2.089       .  S
Co1562     N2356   2.088       .  S
N1563      C1601   1.335       .  A
N1563      N1570   1.317       .  A
Co1564     N1567   2.096       .  S
Co1564     N2349   2.080       .  S
Co1564    Cl2773   2.453       .  S
C1565      N1603   1.352       .  A
C1565      C1925   1.472       .  S
N1566      N1573   1.318       .  A
N1566      N1596   1.321       .  A
N1566     Co2377   2.073       .  S
N1567      N1585   1.319       .  A
N1567      N1603   1.327       .  A
N1568      C1597   1.349       .  A
N1568      N1578   1.323       .  A
H1569      C1594   1.081       .  S
N1570      N1591   1.323       .  A
N1571      N1589   1.318       .  A
N1571      N1576   1.326       .  A
N1571     Co2342   2.080       .  S
C1572      N1576   1.350       .  A
C1572      C1600   1.460       .  S
C1572      C1850   1.478       .  S
N1573      C1588   1.342       .  A
C1574      N1602   1.342       .  A
C1574      C1577   1.459       .  S
C1574      H1608   1.081       .  S
C1577      N1598   1.347       .  A
C1577      C1874   1.467       .  S
N1578      N1584   1.321       .  A
N1578     Co2340   2.088       .  S
N1579      C1605   1.346       .  A
N1579      N1581   1.319       .  A
N1580      C1594   1.343       .  A
N1580     Co1951   2.089   1_554  S
N1581      N1609   1.321       .  A
N1581     Co1599   2.077       .  S
H1582      C1605   1.081       .  S
H1583      C1600   1.080       .  S
N1585     Co2766   2.079       .  S
N1586      N1598   1.324       .  A
N1586      N1602   1.320       .  A
N1586     Co1595   2.076       .  S
C1587      N1591   1.355       .  A
C1587      C1601   1.462       .  S
C1587      C1901   1.487       .  S
C1588      C1607   1.463       .  S
C1588      H1592   1.081       .  S
N1589      C1600   1.339       .  A
N1589     Co1988   2.082       .  S
C1593      N1609   1.348       .  A
C1593      C1605   1.470       .  S
C1593      C1889   1.492       .  S
Co1595     N2336   2.094   1_545  S
N1596      C1607   1.347       .  A
C1597      C1913   1.470       .  S
Co1599     N2344   2.074   1_545  S
Co1599     N2752   2.080   1_544  S
Co1599     N1978   2.080   1_554  S
Co1599    Cl1606   2.441   1_554  S
N1602     Co2729   2.092   1_554  S
Cl1606    Co2731   2.453       .  S
C1607      C1865   1.482       .  S
C1610      C1611   1.547       .  S
C1610      C1616   1.536       .  S
C1610      C1614   1.540       .  S
C1610      C1853   1.540       .  S
C1611      H1618   1.083       .  S
C1611      C1612   1.365       .  D
C1612      C1613   1.543       .  S
C1612      C1826   1.495       .  S
C1613      C1617   1.537       .  S
C1613      C1615   1.544       .  S
C1613      H1619   1.110       .  S
C1614      H1620   1.085       .  S
C1614      C1615   1.366       .  D
C1615      C1838   1.487       .  S
C1616      H1621   1.086       .  S
C1616      C1617   1.363       .  D
C1617      C1814   1.484       .  S
C1622      C1623   1.536       .  S
C1622      C1628   1.541       .  S
C1622      C1626   1.557       .  S
C1622      C1922   1.545       .  S
C1623      H1630   1.086       .  S
C1623      C1624   1.362       .  D
C1624      C1625   1.539       .  S
C1624      C1790   1.483       .  S
C1625      C1629   1.537       .  S
C1625      C1627   1.533       .  S
C1625      H1631   1.108       .  S
C1626      H1632   1.081       .  S
C1626      C1627   1.370       .  D
C1627      C1841   1.488       .  S
C1628      H1633   1.086       .  S
C1628      C1629   1.369       .  D
C1629      C1802   1.495       .  S
C1634      C1635   1.551       .  S
C1634      C1640   1.543       .  S
C1634      C1638   1.540       .  S
C1634      C1862   1.543       .  S
C1635      H1642   1.080       .  S
C1635      C1636   1.360       .  D
C1636      C1637   1.533       .  S
C1636      C1778   1.483       .  S
C1637      C1641   1.532       .  S
C1637      C1639   1.540       .  S
C1637      H1643   1.109       .  S
C1638      H1644   1.085       .  S
C1638      C1639   1.369       .  D
C1639      C1769   1.491       .  S
C1640      H1645   1.086       .  S
C1640      C1641   1.366       .  D
C1641      C1793   1.487       .  S
C1646      C1647   1.542       .  S
C1646      C1652   1.544       .  S
C1646      C1650   1.541       .  S
C1646      C1886   1.538       .  S
C1647      H1654   1.086       .  S
C1647      C1648   1.362       .  D
C1648      C1649   1.532       .  S
C1648      C1817   1.480       .  S
C1649      C1653   1.535       .  S
C1649      C1651   1.539       .  S
C1649      H1655   1.102       .  S
C1650      H1656   1.085       .  S
C1650      C1651   1.377       .  D
C1651      C1766   1.507       .  S
C1652      H1657   1.084       .  S
C1652      C1653   1.358       .  D
C1653      C1754   1.469       .  S
C1658      C1659   1.535       .  S
C1658      C1664   1.547       .  S
C1658      C1662   1.538       .  S
C1658      C1910   1.533       .  S
C1659      H1666   1.086       .  S
C1659      C1660   1.361       .  D
C1660      C1661   1.530       .  S
C1660      C1730   1.483       .  S
C1661      C1665   1.541       .  S
C1661      C1663   1.537       .  S
C1661      H1667   1.104       .  S
C1662      H1668   1.086       .  S
C1662      C1663   1.356       .  D
C1663      C1742   1.465       .  S
C1664      H1669   1.083       .  S
C1664      C1665   1.377       .  D
C1665      C1829   1.505       .  S
C1670      C1671   1.529       .  S
C1670      C1676   1.543       .  S
C1670      C1674   1.552       .  S
C1670      C1877   1.541       .  S
C1671      H1678   1.087       .  S
C1671      C1672   1.355       .  D
C1672      C1673   1.540       .  S
C1672      C1757   1.472       .  S
C1673      C1677   1.546       .  S
C1673      C1675   1.541       .  S
C1673      H1679   1.105       .  S
C1674      H1680   1.081       .  S
C1674      C1675   1.367       .  D
C1675      C1718   1.499       .  S
C1676      H1681   1.085       .  S
C1676      C1677   1.375       .  D
C1677      C1733   1.506       .  S
C1682      C1683   1.551       .  S
C1682      C1688   1.546       .  S
C1682      C1686   1.543       .  S
C1682      C1937   1.549       .  S
C1683      H1690   1.082       .  S
C1683      C1684   1.362       .  D
C1684      C1685   1.538       .  S
C1684      C1706   1.488       .  S
C1685      C1689   1.532       .  S
C1685      C1687   1.545       .  S
C1685      H1691   1.110       .  S
C1686      H1692   1.084       .  S
C1686      C1687   1.372       .  D
C1687      C1721   1.502       .  S
C1688      H1693   1.086       .  S
C1688      C1689   1.367       .  D
C1689      C1781   1.485       .  S
C1694      C1695   1.542       .  S
C1694      C1700   1.550       .  S
C1694      C1698   1.531       .  S
C1694      C1898   1.533       .  S
C1695      H1702   1.083       .  S
C1695      C1696   1.366       .  D
C1696      C1697   1.539       .  S
C1696      C1805   1.483       .  S
C1697      C1701   1.539       .  S
C1697      C1699   1.535       .  S
C1697      H1703   1.111       .  S
C1698      H1704   1.087       .  S
C1698      C1699   1.357       .  D
C1699      C1745   1.471       .  S
C1700      H1705   1.086       .  S
C1700      C1701   1.369       .  D
C1701      C1709   1.492       .  S
C1706      C1707   1.400       .  A
C1706      C1711   1.415       .  A
C1707      H1716   1.076       .  S
C1707      C1708   1.403       .  A
C1708      C1709   1.411       .  A
C1708      S1712   1.799       .  S
C1709      C1710   1.405       .  A
C1710      H1717   1.084       .  S
C1710      C1711   1.404       .  A
C1711      S1713   1.804       .  S
S1712      H1715   1.407       .  S
S1713      H1714   1.402       .  S
C1718      C1719   1.407       .  A
C1718      C1723   1.412       .  A
C1719      H1728   1.083       .  S
C1719      C1720   1.407       .  A
C1720      C1721   1.422       .  A
C1720      S1724   1.803       .  S
C1721      C1722   1.403       .  A
C1722      H1729   1.074       .  S
C1722      C1723   1.394       .  A
C1723      S1725   1.795       .  S
S1724      H1727   1.397       .  S
S1725      H1726   1.406       .  S
C1730      C1731   1.399       .  A
C1730      C1735   1.410       .  A
C1731      H1740   1.084       .  S
C1731      C1732   1.397       .  A
C1732      C1733   1.424       .  A
C1732      S1736   1.796       .  S
C1733      C1734   1.412       .  A
C1734      H1741   1.082       .  S
C1734      C1735   1.400       .  A
C1735      S1737   1.803       .  S
S1736      H1739   1.385       .  S
S1737      H1738   1.404       .  S
C1742      C1743   1.397       .  A
C1742      C1747   1.408       .  A
C1743      H1752   1.084       .  S
C1743      C1744   1.392       .  A
C1744      C1745   1.408       .  A
C1744      S1748   1.795       .  S
C1745      C1746   1.402       .  A
C1746      H1753   1.084       .  S
C1746      C1747   1.397       .  A
C1747      S1749   1.801       .  S
S1748      H1751   1.404       .  S
S1749      H1750   1.403       .  S
C1754      C1755   1.399       .  A
C1754      C1759   1.410       .  A
C1755      H1764   1.084       .  S
C1755      C1756   1.398       .  A
C1756      C1757   1.417       .  A
C1756      S1760   1.810       .  S
C1757      C1758   1.400       .  A
C1758      H1765   1.084       .  S
C1758      C1759   1.396       .  A
C1759      S1761   1.807       .  S
S1760      H1763   1.399       .  S
S1761      H1762   1.403       .  S
C1766      C1767   1.410       .  A
C1766      C1771   1.426       .  A
C1767      H1776   1.082       .  S
C1767      C1768   1.398       .  A
C1768      C1769   1.413       .  A
C1768      S1772   1.802       .  S
C1769      C1770   1.400       .  A
C1770      H1777   1.082       .  S
C1770      C1771   1.400       .  A
C1771      S1773   1.807       .  S
S1772      H1775   1.403       .  S
S1773      H1774   1.407       .  S
C1778      C1779   1.402       .  A
C1778      C1783   1.410       .  A
C1779      H1788   1.084       .  S
C1779      C1780   1.398       .  A
C1780      C1781   1.413       .  A
C1780      S1784   1.794       .  S
C1781      C1782   1.403       .  A
C1782      H1789   1.084       .  S
C1782      C1783   1.400       .  A
C1783      S1785   1.795       .  S
S1784      H1787   1.402       .  S
S1785      H1786   1.406       .  S
C1790      C1791   1.400       .  A
C1790      C1795   1.417       .  A
C1791      H1800   1.084       .  S
C1791      C1792   1.397       .  A
C1792      C1793   1.415       .  A
C1792      S1796   1.798       .  S
C1793      C1794   1.401       .  A
C1794      H1801   1.084       .  S
C1794      C1795   1.397       .  A
C1795      S1797   1.800       .  S
S1796      H1799   1.402       .  S
S1797      H1798   1.401       .  S
C1802      C1803   1.405       .  A
C1802      C1807   1.417       .  A
C1803      H1812   1.083       .  S
C1803      C1804   1.397       .  A
C1804      C1805   1.415       .  A
C1804      S1808   1.802       .  S
C1805      C1806   1.400       .  A
C1806      H1813   1.084       .  S
C1806      C1807   1.397       .  A
C1807      S1809   1.794       .  S
S1808      H1811   1.399       .  S
S1809      H1810   1.398       .  S
C1814      C1815   1.400       .  A
C1814      C1819   1.416       .  A
C1815      H1824   1.083       .  S
C1815      C1816   1.395       .  A
C1816      C1817   1.411       .  A
C1816      S1820   1.798       .  S
C1817      C1818   1.401       .  A
C1818      H1825   1.084       .  S
C1818      C1819   1.400       .  A
C1819      S1821   1.798       .  S
S1820      H1823   1.407       .  S
S1821      H1822   1.401       .  S
C1826      C1827   1.400       .  A
C1826      C1831   1.418       .  A
C1827      H1836   1.077       .  S
C1827      C1828   1.402       .  A
C1828      C1829   1.422       .  A
C1828      S1832   1.803       .  S
C1829      C1830   1.407       .  A
C1830      H1837   1.083       .  S
C1830      C1831   1.397       .  A
C1831      S1833   1.806       .  S
S1832      H1835   1.407       .  S
S1833      H1834   1.398       .  S
C1838      C1839   1.402       .  A
C1838      C1843   1.416       .  A
C1839      H1848   1.081       .  S
C1839      C1840   1.400       .  A
C1840      C1841   1.413       .  A
C1840      S1844   1.801       .  S
C1841      C1842   1.404       .  A
C1842      H1849   1.084       .  S
C1842      C1843   1.406       .  A
C1843      S1845   1.805       .  S
S1844      H1847   1.406       .  S
S1845      H1846   1.402       .  S
C1850      C1851   1.401       .  A
C1850      C1855   1.409       .  A
C1851      H1860   1.084       .  S
C1851      C1852   1.405       .  A
C1852      C1853   1.428       .  A
C1852      S1856   1.806       .  S
C1853      C1854   1.412       .  A
C1854      H1861   1.079       .  S
C1854      C1855   1.394       .  A
C1855      S1857   1.804       .  S
S1856      H1859   1.401       .  S
S1857      H1858   1.407       .  S
C1862      C1863   1.411       .  A
C1862      C1867   1.425       .  A
C1863      H1872   1.074       .  S
C1863      C1864   1.394       .  A
C1864      C1865   1.411       .  A
C1864      S1868   1.803       .  S
C1865      C1866   1.401       .  A
C1866      H1873   1.082       .  S
C1866      C1867   1.406       .  A
C1867      S1869   1.809       .  S
S1868      H1871   1.408       .  S
S1869      H1870   1.407       .  S
C1874      C1875   1.396       .  A
C1874      C1879   1.404       .  A
C1875      H1884   1.083       .  S
C1875      C1876   1.403       .  A
C1876      C1877   1.427       .  A
C1876      S1880   1.811       .  S
C1877      C1878   1.415       .  A
C1878      H1885   1.075       .  S
C1878      C1879   1.399       .  A
C1879      S1881   1.805       .  S
S1880      H1883   1.406       .  S
S1881      H1882   1.406       .  S
C1886      C1887   1.408       .  A
C1886      C1891   1.420       .  A
C1887      H1896   1.080       .  S
C1887      C1888   1.396       .  A
C1888      C1889   1.416       .  A
C1888      S1892   1.802       .  S
C1889      C1890   1.405       .  A
C1890      H1897   1.082       .  S
C1890      C1891   1.408       .  A
C1891      S1893   1.809       .  S
S1892      H1895   1.408       .  S
S1893      H1894   1.407       .  S
C1898      C1899   1.409       .  A
C1898      C1903   1.424       .  A
C1899      H1908   1.083       .  S
C1899      C1900   1.398       .  A
C1900      C1901   1.416       .  A
C1900      S1904   1.801       .  S
C1901      C1902   1.401       .  A
C1902      H1909   1.084       .  S
C1902      C1903   1.396       .  A
C1903      S1905   1.799       .  S
S1904      H1907   1.408       .  S
S1905      H1906   1.405       .  S
C1910      C1911   1.414       .  A
C1910      C1915   1.424       .  A
C1911      H1920   1.082       .  S
C1911      C1912   1.396       .  A
C1912      C1913   1.406       .  A
C1912      S1916   1.805       .  S
C1913      C1914   1.400       .  A
C1914      H1921   1.084       .  S
C1914      C1915   1.400       .  A
C1915      S1917   1.805       .  S
S1916      H1919   1.406       .  S
S1917      H1918   1.404       .  S
C1922      C1923   1.414       .  A
C1922      C1927   1.429       .  A
C1923      H1932   1.076       .  S
C1923      C1924   1.405       .  A
C1924      C1925   1.407       .  A
C1924      S1928   1.805       .  S
C1925      C1926   1.393       .  A
C1926      H1933   1.083       .  S
C1926      C1927   1.401       .  A
C1927      S1929   1.807       .  S
S1928      H1931   1.406       .  S
S1929      H1930   1.407       .  S
C1934      C1935   1.405       .  A
C1934      C1939   1.415       .  A
C1935      H1944   1.081       .  S
C1935      C1936   1.408       .  A
C1936      C1937   1.423       .  A
C1936      S1940   1.808       .  S
C1937      C1938   1.412       .  A
C1938      H1945   1.077       .  S
C1938      C1939   1.400       .  A
C1939      S1941   1.801       .  S
S1940      H1943   1.406       .  S
S1941      H1942   1.408       .  S
C1946      N1964   1.352       .  A
C1946      C1983   1.469       .  S
C1946      C2323   1.498       .  S
N1947      N1964   1.324       .  A
N1947      N1969   1.319       .  A
N1947     Co2762   2.092       .  S
C1948      N1973   1.340       .  A
C1948      C1986   1.459       .  S
C1948      H1993   1.082       .  S
H1949      C1990   1.078       .  S
C1950      N1974   1.340       .  A
C1950      C1954   1.456       .  S
C1950      H1979   1.081       .  S
Co1951     N1959   2.084       .  S
Co1951     N2380   2.088   1_556  S
Co1951     N2745   2.083       .  S
N1952      C1990   1.334       .  A
N1952      N1959   1.317       .  A
Co1953     N1956   2.095       .  S
Co1953     N2738   2.084       .  S
Co1953    Cl2384   2.454       .  S
C1954      N1992   1.351       .  A
C1954      C2314   1.472       .  S
N1955      N1962   1.318       .  A
N1955      N1985   1.321       .  A
N1955     Co2766   2.072       .  S
N1956      N1974   1.320       .  A
N1956      N1992   1.326       .  A
N1957      C1986   1.348       .  A
N1957      N1967   1.323       .  A
H1958      C1983   1.081       .  S
N1959      N1980   1.323       .  A
N1960      N1978   1.318       .  A
N1960      N1965   1.325       .  A
N1960     Co2731   2.079       .  S
C1961      N1965   1.350       .  A
C1961      C1989   1.460       .  S
C1961      C2239   1.477       .  S
N1962      C1977   1.342       .  A
C1963      N1991   1.341       .  A
C1963      C1966   1.458       .  S
C1963      H1997   1.081       .  S
C1966      N1987   1.347       .  A
C1966      C2263   1.466       .  S
N1967      N1973   1.321       .  A
N1967     Co2729   2.083       .  S
N1968      C1994   1.346       .  A
N1968      N1970   1.319       .  A
N1969      C1983   1.343       .  A
N1970      N1998   1.320       .  A
N1970     Co1988   2.073       .  S
H1971      C1994   1.081       .  S
H1972      C1989   1.080       .  S
N1974     Co2377   2.080   1_556  S
N1975      N1987   1.324       .  A
N1975      N1991   1.320       .  A
N1975     Co1984   2.077       .  S
C1976      N1980   1.355       .  A
C1976      C1990   1.461       .  S
C1976      C2290   1.486       .  S
C1977      C1996   1.462       .  S
C1977      H1981   1.081       .  S
N1978      C1989   1.338       .  A
C1982      N1998   1.346       .  A
C1982      C1994   1.471       .  S
C1982      C2278   1.491       .  S
Co1984     N2725   2.093   1_545  S
N1985      C1996   1.347       .  A
C1986      C2302   1.469       .  S
Co1988     N2733   2.074   1_545  S
Co1988     N2363   2.079   1_545  S
Co1988    Cl1995   2.440       .  S
N1991     Co2340   2.089       .  S
Cl1995    Co2342   2.454       .  S
C1996      C2254   1.479       .  S
C1999      C2000   1.547       .  S
C1999      C2005   1.537       .  S
C1999      C2003   1.541       .  S
C1999      C2242   1.541       .  S
C2000      H2007   1.082       .  S
C2000      C2001   1.364       .  D
C2001      C2002   1.545       .  S
C2001      C2215   1.498       .  S
C2002      C2006   1.537       .  S
C2002      C2004   1.545       .  S
C2002      H2008   1.110       .  S
C2003      H2009   1.085       .  S
C2003      C2004   1.366       .  D
C2004      C2227   1.489       .  S
C2005      H2010   1.086       .  S
C2005      C2006   1.363       .  D
C2006      C2203   1.485       .  S
C2011      C2012   1.536       .  S
C2011      C2017   1.540       .  S
C2011      C2015   1.557       .  S
C2011      C2311   1.546       .  S
C2012      H2019   1.086       .  S
C2012      C2013   1.363       .  D
C2013      C2014   1.541       .  S
C2013      C2179   1.485       .  S
C2014      C2018   1.537       .  S
C2014      C2016   1.534       .  S
C2014      H2020   1.109       .  S
C2015      H2021   1.081       .  S
C2015      C2016   1.370       .  D
C2016      C2230   1.490       .  S
C2017      H2022   1.086       .  S
C2017      C2018   1.368       .  D
C2018      C2191   1.494       .  S
C2023      C2024   1.551       .  S
C2023      C2029   1.543       .  S
C2023      C2027   1.540       .  S
C2023      C2251   1.542       .  S
C2024      H2031   1.079       .  S
C2024      C2025   1.360       .  D
C2025      C2026   1.532       .  S
C2025      C2167   1.484       .  S
C2026      C2030   1.533       .  S
C2026      C2028   1.541       .  S
C2026      H2032   1.109       .  S
C2027      H2033   1.085       .  S
C2027      C2028   1.369       .  D
C2028      C2158   1.491       .  S
C2029      H2034   1.086       .  S
C2029      C2030   1.366       .  D
C2030      C2182   1.487       .  S
C2035      C2036   1.542       .  S
C2035      C2041   1.543       .  S
C2035      C2039   1.540       .  S
C2035      C2275   1.537       .  S
C2036      H2043   1.086       .  S
C2036      C2037   1.362       .  D
C2037      C2038   1.534       .  S
C2037      C2206   1.481       .  S
C2038      C2042   1.536       .  S
C2038      C2040   1.541       .  S
C2038      H2044   1.103       .  S
C2039      H2045   1.085       .  S
C2039      C2040   1.376       .  D
C2040      C2155   1.507       .  S
C2041      H2046   1.084       .  S
C2041      C2042   1.358       .  D
C2042      C2143   1.470       .  S
C2047      C2048   1.534       .  S
C2047      C2053   1.547       .  S
C2047      C2051   1.539       .  S
C2047      C2299   1.534       .  S
C2048      H2055   1.086       .  S
C2048      C2049   1.361       .  D
C2049      C2050   1.531       .  S
C2049      C2119   1.483       .  S
C2050      C2054   1.542       .  S
C2050      C2052   1.538       .  S
C2050      H2056   1.104       .  S
C2051      H2057   1.086       .  S
C2051      C2052   1.357       .  D
C2052      C2131   1.468       .  S
C2053      H2058   1.083       .  S
C2053      C2054   1.376       .  D
C2054      C2218   1.507       .  S
C2059      C2060   1.531       .  S
C2059      C2065   1.542       .  S
C2059      C2063   1.552       .  S
C2059      C2266   1.542       .  S
C2060      H2067   1.087       .  S
C2060      C2061   1.355       .  D
C2061      C2062   1.541       .  S
C2061      C2146   1.473       .  S
C2062      C2066   1.546       .  S
C2062      C2064   1.540       .  S
C2062      H2068   1.105       .  S
C2063      H2069   1.080       .  S
C2063      C2064   1.366       .  D
C2064      C2107   1.498       .  S
C2065      H2070   1.085       .  S
C2065      C2066   1.374       .  D
C2066      C2122   1.505       .  S
C2071      C2072   1.552       .  S
C2071      C2077   1.546       .  S
C2071      C2075   1.543       .  S
C2071      C2326   1.551       .  S
C2072      H2079   1.082       .  S
C2072      C2073   1.362       .  D
C2073      C2074   1.539       .  S
C2073      C2095   1.490       .  S
C2074      C2078   1.535       .  S
C2074      C2076   1.545       .  S
C2074      H2080   1.110       .  S
C2075      H2081   1.085       .  S
C2075      C2076   1.372       .  D
C2076      C2110   1.503       .  S
C2077      H2082   1.086       .  S
C2077      C2078   1.367       .  D
C2078      C2170   1.488       .  S
C2083      C2084   1.541       .  S
C2083      C2089   1.550       .  S
C2083      C2087   1.533       .  S
C2083      C2287   1.534       .  S
C2084      H2091   1.083       .  S
C2084      C2085   1.365       .  D
C2085      C2086   1.538       .  S
C2085      C2194   1.481       .  S
C2086      C2090   1.540       .  S
C2086      C2088   1.535       .  S
C2086      H2092   1.111       .  S
C2087      H2093   1.087       .  S
C2087      C2088   1.358       .  D
C2088      C2134   1.472       .  S
C2089      H2094   1.086       .  S
C2089      C2090   1.369       .  D
C2090      C2098   1.493       .  S
C2095      C2096   1.401       .  A
C2095      C2100   1.415       .  A
C2096      H2105   1.076       .  S
C2096      C2097   1.403       .  A
C2097      C2098   1.411       .  A
C2097      S2101   1.798       .  S
C2098      C2099   1.405       .  A
C2099      H2106   1.084       .  S
C2099      C2100   1.405       .  A
C2100      S2102   1.804       .  S
S2101      H2104   1.407       .  S
S2102      H2103   1.403       .  S
C2107      C2108   1.406       .  A
C2107      C2112   1.411       .  A
C2108      H2117   1.084       .  S
C2108      C2109   1.407       .  A
C2109      C2110   1.423       .  A
C2109      S2113   1.803       .  S
C2110      C2111   1.404       .  A
C2111      H2118   1.074       .  S
C2111      C2112   1.395       .  A
C2112      S2114   1.796       .  S
S2113      H2116   1.395       .  S
S2114      H2115   1.406       .  S
C2119      C2120   1.399       .  A
C2119      C2124   1.411       .  A
C2120      H2129   1.084       .  S
C2120      C2121   1.396       .  A
C2121      C2122   1.423       .  A
C2121      S2125   1.796       .  S
C2122      C2123   1.411       .  A
C2123      H2130   1.082       .  S
C2123      C2124   1.400       .  A
C2124      S2126   1.804       .  S
S2125      H2128   1.384       .  S
S2126      H2127   1.404       .  S
C2131      C2132   1.397       .  A
C2131      C2136   1.409       .  A
C2132      H2141   1.084       .  S
C2132      C2133   1.393       .  A
C2133      C2134   1.408       .  A
C2133      S2137   1.794       .  S
C2134      C2135   1.402       .  A
C2135      H2142   1.084       .  S
C2135      C2136   1.398       .  A
C2136      S2138   1.801       .  S
S2137      H2140   1.404       .  S
S2138      H2139   1.403       .  S
C2143      C2144   1.399       .  A
C2143      C2148   1.410       .  A
C2144      H2153   1.084       .  S
C2144      C2145   1.398       .  A
C2145      C2146   1.418       .  A
C2145      S2149   1.809       .  S
C2146      C2147   1.401       .  A
C2147      H2154   1.084       .  S
C2147      C2148   1.397       .  A
C2148      S2150   1.807       .  S
S2149      H2152   1.399       .  S
S2150      H2151   1.403       .  S
C2155      C2156   1.409       .  A
C2155      C2160   1.425       .  A
C2156      H2165   1.082       .  S
C2156      C2157   1.398       .  A
C2157      C2158   1.413       .  A
C2157      S2161   1.801       .  S
C2158      C2159   1.401       .  A
C2159      H2166   1.082       .  S
C2159      C2160   1.402       .  A
C2160      S2162   1.806       .  S
S2161      H2164   1.403       .  S
S2162      H2163   1.407       .  S
C2167      C2168   1.401       .  A
C2167      C2172   1.410       .  A
C2168      H2177   1.084       .  S
C2168      C2169   1.398       .  A
C2169      C2170   1.414       .  A
C2169      S2173   1.793       .  S
C2170      C2171   1.403       .  A
C2171      H2178   1.084       .  S
C2171      C2172   1.400       .  A
C2172      S2174   1.794       .  S
S2173      H2176   1.400       .  S
S2174      H2175   1.406       .  S
C2179      C2180   1.401       .  A
C2179      C2184   1.418       .  A
C2180      H2189   1.084       .  S
C2180      C2181   1.398       .  A
C2181      C2182   1.414       .  A
C2181      S2185   1.797       .  S
C2182      C2183   1.401       .  A
C2183      H2190   1.084       .  S
C2183      C2184   1.397       .  A
C2184      S2186   1.800       .  S
S2185      H2188   1.402       .  S
S2186      H2187   1.401       .  S
C2191      C2192   1.405       .  A
C2191      C2196   1.416       .  A
C2192      H2201   1.083       .  S
C2192      C2193   1.397       .  A
C2193      C2194   1.415       .  A
C2193      S2197   1.803       .  S
C2194      C2195   1.399       .  A
C2195      H2202   1.084       .  S
C2195      C2196   1.396       .  A
C2196      S2198   1.793       .  S
S2197      H2200   1.399       .  S
S2198      H2199   1.399       .  S
C2203      C2204   1.401       .  A
C2203      C2208   1.416       .  A
C2204      H2213   1.084       .  S
C2204      C2205   1.397       .  A
C2205      C2206   1.411       .  A
C2205      S2209   1.798       .  S
C2206      C2207   1.401       .  A
C2207      H2214   1.084       .  S
C2207      C2208   1.401       .  A
C2208      S2210   1.798       .  S
S2209      H2212   1.407       .  S
S2210      H2211   1.402       .  S
C2215      C2216   1.401       .  A
C2215      C2220   1.420       .  A
C2216      H2225   1.077       .  S
C2216      C2217   1.403       .  A
C2217      C2218   1.421       .  A
C2217      S2221   1.801       .  S
C2218      C2219   1.408       .  A
C2219      H2226   1.083       .  S
C2219      C2220   1.399       .  A
C2220      S2222   1.806       .  S
S2221      H2224   1.407       .  S
S2222      H2223   1.399       .  S
C2227      C2228   1.401       .  A
C2227      C2232   1.416       .  A
C2228      H2237   1.081       .  S
C2228      C2229   1.401       .  A
C2229      C2230   1.414       .  A
C2229      S2233   1.800       .  S
C2230      C2231   1.404       .  A
C2231      H2238   1.084       .  S
C2231      C2232   1.407       .  A
C2232      S2234   1.804       .  S
S2233      H2236   1.406       .  S
S2234      H2235   1.403       .  S
C2239      C2240   1.400       .  A
C2239      C2244   1.409       .  A
C2240      H2249   1.084       .  S
C2240      C2241   1.404       .  A
C2241      C2242   1.428       .  A
C2241      S2245   1.806       .  S
C2242      C2243   1.413       .  A
C2243      H2250   1.079       .  S
C2243      C2244   1.395       .  A
C2244      S2246   1.805       .  S
S2245      H2248   1.400       .  S
S2246      H2247   1.407       .  S
C2251      C2252   1.411       .  A
C2251      C2256   1.425       .  A
C2252      H2261   1.073       .  S
C2252      C2253   1.393       .  A
C2253      C2254   1.410       .  A
C2253      S2257   1.804       .  S
C2254      C2255   1.400       .  A
C2255      H2262   1.082       .  S
C2255      C2256   1.406       .  A
C2256      S2258   1.809       .  S
S2257      H2260   1.408       .  S
S2258      H2259   1.407       .  S
C2263      C2264   1.396       .  A
C2263      C2268   1.405       .  A
C2264      H2273   1.083       .  S
C2264      C2265   1.402       .  A
C2265      C2266   1.427       .  A
C2265      S2269   1.811       .  S
C2266      C2267   1.415       .  A
C2267      H2274   1.074       .  S
C2267      C2268   1.400       .  A
C2268      S2270   1.809       .  S
S2269      H2272   1.406       .  S
S2270      H2271   1.403       .  S
C2275      C2276   1.408       .  A
C2275      C2280   1.420       .  A
C2276      H2285   1.080       .  S
C2276      C2277   1.396       .  A
C2277      C2278   1.417       .  A
C2277      S2281   1.802       .  S
C2278      C2279   1.404       .  A
C2279      H2286   1.082       .  S
C2279      C2280   1.407       .  A
C2280      S2282   1.809       .  S
S2281      H2284   1.408       .  S
S2282      H2283   1.407       .  S
C2287      C2288   1.409       .  A
C2287      C2292   1.424       .  A
C2288      H2297   1.083       .  S
C2288      C2289   1.398       .  A
C2289      C2290   1.416       .  A
C2289      S2293   1.801       .  S
C2290      C2291   1.401       .  A
C2291      H2298   1.084       .  S
C2291      C2292   1.396       .  A
C2292      S2294   1.799       .  S
S2293      H2296   1.408       .  S
S2294      H2295   1.405       .  S
C2299      C2300   1.415       .  A
C2299      C2304   1.425       .  A
C2300      H2309   1.082       .  S
C2300      C2301   1.396       .  A
C2301      C2302   1.406       .  A
C2301      S2305   1.806       .  S
C2302      C2303   1.399       .  A
C2303      H2310   1.084       .  S
C2303      C2304   1.399       .  A
C2304      S2306   1.805       .  S
S2305      H2308   1.406       .  S
S2306      H2307   1.404       .  S
C2311      C2312   1.414       .  A
C2311      C2316   1.429       .  A
C2312      H2321   1.076       .  S
C2312      C2313   1.405       .  A
C2313      C2314   1.408       .  A
C2313      S2317   1.805       .  S
C2314      C2315   1.393       .  A
C2315      H2322   1.084       .  S
C2315      C2316   1.400       .  A
C2316      S2318   1.806       .  S
S2317      H2320   1.405       .  S
S2318      H2319   1.407       .  S
C2323      C2324   1.405       .  A
C2323      C2328   1.415       .  A
C2324      H2333   1.081       .  S
C2324      C2325   1.409       .  A
C2325      C2326   1.424       .  A
C2325      S2329   1.808       .  S
C2326      C2327   1.412       .  A
C2327      H2334   1.077       .  S
C2327      C2328   1.401       .  A
C2328      S2330   1.801       .  S
S2329      H2332   1.406       .  S
S2330      H2331   1.408       .  S
C2335      N2353   1.352       .  A
C2335      C2372   1.467       .  S
C2335      C2712   1.497       .  S
N2336      N2353   1.324       .  A
N2336      N2358   1.319       .  A
C2337      N2362   1.339       .  A
C2337      C2375   1.457       .  S
C2337      H2382   1.082       .  S
H2338      C2379   1.077       .  S
C2339      N2363   1.340       .  A
C2339      C2343   1.456       .  S
C2339      H2368   1.081       .  S
Co2340     N2747   2.089   1_545  S
Co2340     N2348   2.086   1_545  S
N2341      C2379   1.334       .  A
N2341      N2348   1.316       .  A
Co2342     N2345   2.094   1_545  S
C2343      N2381   1.351       .  A
C2343      C2703   1.471       .  S
N2344      N2351   1.318       .  A
N2344      N2374   1.321       .  A
N2345      N2363   1.319       .  A
N2345      N2381   1.326       .  A
N2346      C2375   1.348       .  A
N2346      N2356   1.323       .  A
H2347      C2372   1.081       .  S
N2348      N2369   1.324       .  A
N2349      N2367   1.317       .  A
N2349      N2354   1.326       .  A
C2350      N2354   1.351       .  A
C2350      C2378   1.460       .  S
C2350      C2628   1.479       .  S
N2351      C2366   1.342       .  A
C2352      N2380   1.342       .  A
C2352      C2355   1.458       .  S
C2352      H2386   1.081       .  S
C2355      N2376   1.347       .  A
C2355      C2652   1.467       .  S
N2356      N2362   1.322       .  A
N2357      C2383   1.345       .  A
N2357      N2359   1.319       .  A
N2358      C2372   1.343       .  A
N2358     Co2729   2.089   1_564  S
N2359      N2387   1.320       .  A
N2359     Co2377   2.075       .  S
H2360      C2383   1.081       .  S
H2361      C2378   1.080       .  S
N2364      N2376   1.323       .  A
N2364      N2380   1.320       .  A
N2364     Co2373   2.079       .  S
C2365      N2369   1.356       .  A
C2365      C2379   1.462       .  S
C2365      C2679   1.488       .  S
C2366      C2385   1.464       .  S
C2366      H2370   1.081       .  S
N2367      C2378   1.339       .  A
N2367     Co2766   2.080       .  S
C2371      N2387   1.347       .  A
C2371      C2383   1.470       .  S
C2371      C2667   1.490       .  S
N2374      C2385   1.347       .  A
C2375      C2691   1.468       .  S
Co2377     N2756   2.079   1_554  S
Co2377    Cl2384   2.441   1_554  S
C2385      C2643   1.483       .  S
C2388      C2389   1.547       .  S
C2388      C2394   1.537       .  S
C2388      C2392   1.540       .  S
C2388      C2631   1.541       .  S
C2389      H2396   1.083       .  S
C2389      C2390   1.364       .  D
C2390      C2391   1.544       .  S
C2390      C2604   1.497       .  S
C2391      C2395   1.539       .  S
C2391      C2393   1.545       .  S
C2391      H2397   1.110       .  S
C2392      H2398   1.085       .  S
C2392      C2393   1.366       .  D
C2393      C2616   1.487       .  S
C2394      H2399   1.086       .  S
C2394      C2395   1.364       .  D
C2395      C2592   1.488       .  S
C2400      C2401   1.536       .  S
C2400      C2406   1.541       .  S
C2400      C2404   1.557       .  S
C2400      C2700   1.545       .  S
C2401      H2408   1.086       .  S
C2401      C2402   1.362       .  D
C2402      C2403   1.540       .  S
C2402      C2568   1.486       .  S
C2403      C2407   1.538       .  S
C2403      C2405   1.534       .  S
C2403      H2409   1.108       .  S
C2404      H2410   1.081       .  S
C2404      C2405   1.370       .  D
C2405      C2619   1.489       .  S
C2406      H2411   1.086       .  S
C2406      C2407   1.369       .  D
C2407      C2580   1.496       .  S
C2412      C2413   1.551       .  S
C2412      C2418   1.545       .  S
C2412      C2416   1.538       .  S
C2412      C2640   1.542       .  S
C2413      H2420   1.081       .  S
C2413      C2414   1.360       .  D
C2414      C2415   1.534       .  S
C2414      C2556   1.485       .  S
C2415      C2419   1.533       .  S
C2415      C2417   1.541       .  S
C2415      H2421   1.109       .  S
C2416      H2422   1.085       .  S
C2416      C2417   1.367       .  D
C2417      C2547   1.489       .  S
C2418      H2423   1.086       .  S
C2418      C2419   1.367       .  D
C2419      C2571   1.488       .  S
C2424      C2425   1.543       .  S
C2424      C2430   1.544       .  S
C2424      C2428   1.540       .  S
C2424      C2664   1.536       .  S
C2425      H2432   1.086       .  S
C2425      C2426   1.363       .  D
C2426      C2427   1.534       .  S
C2426      C2595   1.483       .  S
C2427      C2431   1.536       .  S
C2427      C2429   1.540       .  S
C2427      H2433   1.102       .  S
C2428      H2434   1.085       .  S
C2428      C2429   1.376       .  D
C2429      C2544   1.506       .  S
C2430      H2435   1.084       .  S
C2430      C2431   1.357       .  D
C2431      C2532   1.470       .  S
C2436      C2437   1.534       .  S
C2436      C2442   1.546       .  S
C2436      C2440   1.539       .  S
C2436      C2688   1.531       .  S
C2437      H2444   1.086       .  S
C2437      C2438   1.360       .  D
C2438      C2439   1.531       .  S
C2438      C2508   1.481       .  S
C2439      C2443   1.542       .  S
C2439      C2441   1.539       .  S
C2439      H2445   1.104       .  S
C2440      H2446   1.086       .  S
C2440      C2441   1.357       .  D
C2441      C2520   1.467       .  S
C2442      H2447   1.083       .  S
C2442      C2443   1.375       .  D
C2443      C2607   1.505       .  S
C2448      C2449   1.530       .  S
C2448      C2454   1.542       .  S
C2448      C2452   1.553       .  S
C2448      C2655   1.541       .  S
C2449      H2456   1.087       .  S
C2449      C2450   1.355       .  D
C2450      C2451   1.540       .  S
C2450      C2535   1.473       .  S
C2451      C2455   1.547       .  S
C2451      C2453   1.540       .  S
C2451      H2457   1.105       .  S
C2452      H2458   1.080       .  S
C2452      C2453   1.368       .  D
C2453      C2496   1.500       .  S
C2454      H2459   1.085       .  S
C2454      C2455   1.374       .  D
C2455      C2511   1.505       .  S
C2460      C2461   1.550       .  S
C2460      C2466   1.546       .  S
C2460      C2464   1.544       .  S
C2460      C2715   1.550       .  S
C2461      H2468   1.082       .  S
C2461      C2462   1.361       .  D
C2462      C2463   1.539       .  S
C2462      C2484   1.489       .  S
C2463      C2467   1.534       .  S
C2463      C2465   1.546       .  S
C2463      H2469   1.110       .  S
C2464      H2470   1.084       .  S
C2464      C2465   1.373       .  D
C2465      C2499   1.505       .  S
C2466      H2471   1.086       .  S
C2466      C2467   1.367       .  D
C2467      C2559   1.486       .  S
C2472      C2473   1.542       .  S
C2472      C2478   1.551       .  S
C2472      C2476   1.532       .  S
C2472      C2676   1.535       .  S
C2473      H2480   1.084       .  S
C2473      C2474   1.366       .  D
C2474      C2475   1.539       .  S
C2474      C2583   1.484       .  S
C2475      C2479   1.539       .  S
C2475      C2477   1.536       .  S
C2475      H2481   1.111       .  S
C2476      H2482   1.087       .  S
C2476      C2477   1.357       .  D
C2477      C2523   1.472       .  S
C2478      H2483   1.086       .  S
C2478      C2479   1.370       .  D
C2479      C2487   1.493       .  S
C2484      C2485   1.399       .  A
C2484      C2489   1.415       .  A
C2485      H2494   1.077       .  S
C2485      C2486   1.403       .  A
C2486      C2487   1.412       .  A
C2486      S2490   1.799       .  S
C2487      C2488   1.405       .  A
C2488      H2495   1.084       .  S
C2488      C2489   1.405       .  A
C2489      S2491   1.804       .  S
S2490      H2493   1.407       .  S
S2491      H2492   1.403       .  S
C2496      C2497   1.407       .  A
C2496      C2501   1.412       .  A
C2497      H2506   1.084       .  S
C2497      C2498   1.407       .  A
C2498      C2499   1.423       .  A
C2498      S2502   1.802       .  S
C2499      C2500   1.404       .  A
C2500      H2507   1.075       .  S
C2500      C2501   1.394       .  A
C2501      S2503   1.796       .  S
S2502      H2505   1.396       .  S
S2503      H2504   1.406       .  S
C2508      C2509   1.398       .  A
C2508      C2513   1.410       .  A
C2509      H2518   1.084       .  S
C2509      C2510   1.396       .  A
C2510      C2511   1.423       .  A
C2510      S2514   1.796       .  S
C2511      C2512   1.412       .  A
C2512      H2519   1.083       .  S
C2512      C2513   1.400       .  A
C2513      S2515   1.804       .  S
S2514      H2517   1.386       .  S
S2515      H2516   1.403       .  S
C2520      C2521   1.397       .  A
C2520      C2525   1.409       .  A
C2521      H2530   1.084       .  S
C2521      C2522   1.392       .  A
C2522      C2523   1.407       .  A
C2522      S2526   1.794       .  S
C2523      C2524   1.403       .  A
C2524      H2531   1.084       .  S
C2524      C2525   1.399       .  A
C2525      S2527   1.801       .  S
S2526      H2529   1.404       .  S
S2527      H2528   1.403       .  S
C2532      C2533   1.398       .  A
C2532      C2537   1.410       .  A
C2533      H2542   1.084       .  S
C2533      C2534   1.398       .  A
C2534      C2535   1.418       .  A
C2534      S2538   1.809       .  S
C2535      C2536   1.401       .  A
C2536      H2543   1.084       .  S
C2536      C2537   1.397       .  A
C2537      S2539   1.807       .  S
S2538      H2541   1.399       .  S
S2539      H2540   1.403       .  S
C2544      C2545   1.410       .  A
C2544      C2549   1.426       .  A
C2545      H2554   1.082       .  S
C2545      C2546   1.398       .  A
C2546      C2547   1.413       .  A
C2546      S2550   1.803       .  S
C2547      C2548   1.400       .  A
C2548      H2555   1.082       .  S
C2548      C2549   1.400       .  A
C2549      S2551   1.806       .  S
S2550      H2553   1.403       .  S
S2551      H2552   1.407       .  S
C2556      C2557   1.403       .  A
C2556      C2561   1.410       .  A
C2557      H2566   1.084       .  S
C2557      C2558   1.399       .  A
C2558      C2559   1.414       .  A
C2558      S2562   1.795       .  S
C2559      C2560   1.403       .  A
C2560      H2567   1.084       .  S
C2560      C2561   1.399       .  A
C2561      S2563   1.795       .  S
S2562      H2565   1.401       .  S
S2563      H2564   1.406       .  S
C2568      C2569   1.401       .  A
C2568      C2573   1.418       .  A
C2569      H2578   1.084       .  S
C2569      C2570   1.398       .  A
C2570      C2571   1.415       .  A
C2570      S2574   1.797       .  S
C2571      C2572   1.402       .  A
C2572      H2579   1.084       .  S
C2572      C2573   1.398       .  A
C2573      S2575   1.801       .  S
S2574      H2577   1.402       .  S
S2575      H2576   1.402       .  S
C2580      C2581   1.406       .  A
C2580      C2585   1.418       .  A
C2581      H2590   1.083       .  S
C2581      C2582   1.398       .  A
C2582      C2583   1.415       .  A
C2582      S2586   1.803       .  S
C2583      C2584   1.400       .  A
C2584      H2591   1.084       .  S
C2584      C2585   1.398       .  A
C2585      S2587   1.795       .  S
S2586      H2589   1.399       .  S
S2587      H2588   1.399       .  S
C2592      C2593   1.402       .  A
C2592      C2597   1.418       .  A
C2593      H2602   1.084       .  S
C2593      C2594   1.397       .  A
C2594      C2595   1.411       .  A
C2594      S2598   1.798       .  S
C2595      C2596   1.401       .  A
C2596      H2603   1.084       .  S
C2596      C2597   1.401       .  A
C2597      S2599   1.799       .  S
S2598      H2601   1.407       .  S
S2599      H2600   1.400       .  S
C2604      C2605   1.401       .  A
C2604      C2609   1.419       .  A
C2605      H2614   1.077       .  S
C2605      C2606   1.402       .  A
C2606      C2607   1.421       .  A
C2606      S2610   1.802       .  S
C2607      C2608   1.408       .  A
C2608      H2615   1.083       .  S
C2608      C2609   1.398       .  A
C2609      S2611   1.805       .  S
S2610      H2613   1.407       .  S
S2611      H2612   1.398       .  S
C2616      C2617   1.401       .  A
C2616      C2621   1.415       .  A
C2617      H2626   1.081       .  S
C2617      C2618   1.399       .  A
C2618      C2619   1.413       .  A
C2618      S2622   1.800       .  S
C2619      C2620   1.404       .  A
C2620      H2627   1.084       .  S
C2620      C2621   1.407       .  A
C2621      S2623   1.804       .  S
S2622      H2625   1.406       .  S
S2623      H2624   1.403       .  S
C2628      C2629   1.401       .  A
C2628      C2633   1.409       .  A
C2629      H2638   1.084       .  S
C2629      C2630   1.405       .  A
C2630      C2631   1.428       .  A
C2630      S2634   1.806       .  S
C2631      C2632   1.413       .  A
C2632      H2639   1.079       .  S
C2632      C2633   1.395       .  A
C2633      S2635   1.804       .  S
S2634      H2637   1.400       .  S
S2635      H2636   1.407       .  S
C2640      C2641   1.410       .  A
C2640      C2645   1.424       .  A
C2641      H2650   1.075       .  S
C2641      C2642   1.394       .  A
C2642      C2643   1.412       .  A
C2642      S2646   1.803       .  S
C2643      C2644   1.402       .  A
C2644      H2651   1.082       .  S
C2644      C2645   1.407       .  A
C2645      S2647   1.810       .  S
S2646      H2649   1.408       .  S
S2647      H2648   1.407       .  S
C2652      C2653   1.396       .  A
C2652      C2657   1.404       .  A
C2653      H2662   1.083       .  S
C2653      C2654   1.403       .  A
C2654      C2655   1.427       .  A
C2654      S2658   1.811       .  S
C2655      C2656   1.415       .  A
C2656      H2663   1.075       .  S
C2656      C2657   1.399       .  A
C2657      S2659   1.807       .  S
S2658      H2661   1.406       .  S
S2659      H2660   1.405       .  S
C2664      C2665   1.407       .  A
C2664      C2669   1.420       .  A
C2665      H2674   1.080       .  S
C2665      C2666   1.395       .  A
C2666      C2667   1.416       .  A
C2666      S2670   1.802       .  S
C2667      C2668   1.405       .  A
C2668      H2675   1.082       .  S
C2668      C2669   1.407       .  A
C2669      S2671   1.809       .  S
S2670      H2673   1.408       .  S
S2671      H2672   1.407       .  S
C2676      C2677   1.408       .  A
C2676      C2681   1.425       .  A
C2677      H2686   1.082       .  S
C2677      C2678   1.398       .  A
C2678      C2679   1.417       .  A
C2678      S2682   1.800       .  S
C2679      C2680   1.402       .  A
C2680      H2687   1.084       .  S
C2680      C2681   1.397       .  A
C2681      S2683   1.799       .  S
S2682      H2685   1.408       .  S
S2683      H2684   1.405       .  S
C2688      C2689   1.414       .  A
C2688      C2693   1.425       .  A
C2689      H2698   1.081       .  S
C2689      C2690   1.395       .  A
C2690      C2691   1.406       .  A
C2690      S2694   1.805       .  S
C2691      C2692   1.399       .  A
C2692      H2699   1.084       .  S
C2692      C2693   1.398       .  A
C2693      S2695   1.805       .  S
S2694      H2697   1.406       .  S
S2695      H2696   1.404       .  S
C2700      C2701   1.414       .  A
C2700      C2705   1.429       .  A
C2701      H2710   1.076       .  S
C2701      C2702   1.404       .  A
C2702      C2703   1.407       .  A
C2702      S2706   1.804       .  S
C2703      C2704   1.393       .  A
C2704      H2711   1.083       .  S
C2704      C2705   1.401       .  A
C2705      S2707   1.808       .  S
S2706      H2709   1.406       .  S
S2707      H2708   1.406       .  S
C2712      C2713   1.405       .  A
C2712      C2717   1.415       .  A
C2713      H2722   1.081       .  S
C2713      C2714   1.409       .  A
C2714      C2715   1.423       .  A
C2714      S2718   1.808       .  S
C2715      C2716   1.412       .  A
C2716      H2723   1.076       .  S
C2716      C2717   1.400       .  A
C2717      S2719   1.801       .  S
S2718      H2721   1.407       .  S
S2719      H2720   1.408       .  S
C2724      N2742   1.352       .  A
C2724      C2761   1.467       .  S
C2724      C3101   1.496       .  S
N2725      N2742   1.324       .  A
N2725      N2747   1.319       .  A
C2726      N2751   1.339       .  A
C2726      C2764   1.458       .  S
C2726      H2771   1.082       .  S
H2727      C2768   1.077       .  S
C2728      N2752   1.340       .  A
C2728      C2732   1.456       .  S
C2728      H2757   1.081       .  S
Co2729     N2737   2.091   1_545  S
N2730      C2768   1.334       .  A
N2730      N2737   1.317       .  A
Co2731     N2734   2.094   1_545  S
C2732      N2770   1.351       .  A
C2732      C3092   1.471       .  S
N2733      N2740   1.318       .  A
N2733      N2763   1.321       .  A
N2734      N2752   1.319       .  A
N2734      N2770   1.326       .  A
N2735      C2764   1.348       .  A
N2735      N2745   1.323       .  A
H2736      C2761   1.081       .  S
N2737      N2758   1.324       .  A
N2738      N2756   1.318       .  A
N2738      N2743   1.327       .  A
C2739      N2743   1.352       .  A
C2739      C2767   1.459       .  S
C2739      C3017   1.479       .  S
N2740      C2755   1.342       .  A
C2741      N2769   1.342       .  A
C2741      C2744   1.458       .  S
C2741      H2775   1.081       .  S
C2744      N2765   1.347       .  A
C2744      C3041   1.467       .  S
N2745      N2751   1.321       .  A
N2746      C2772   1.346       .  A
N2746      N2748   1.319       .  A
N2747      C2761   1.343       .  A
N2748      N2776   1.319       .  A
N2748     Co2766   2.072       .  S
H2749      C2772   1.081       .  S
H2750      C2767   1.080       .  S
N2753      N2765   1.324       .  A
N2753      N2769   1.320       .  A
N2753     Co2762   2.077       .  S
C2754      N2758   1.357       .  A
C2754      C2768   1.460       .  S
C2754      C3068   1.488       .  S
C2755      C2774   1.463       .  S
C2755      H2759   1.081       .  S
N2756      C2767   1.338       .  A
C2760      N2776   1.346       .  A
C2760      C2772   1.471       .  S
C2760      C3056   1.490       .  S
N2763      C2774   1.347       .  A
C2764      C3080   1.468       .  S
Co2766    Cl2773   2.439       .  S
C2774      C3032   1.481       .  S
C2777      C2778   1.546       .  S
C2777      C2783   1.538       .  S
C2777      C2781   1.541       .  S
C2777      C3020   1.541       .  S
C2778      H2785   1.082       .  S
C2778      C2779   1.365       .  D
C2779      C2780   1.544       .  S
C2779      C2993   1.496       .  S
C2780      C2784   1.537       .  S
C2780      C2782   1.544       .  S
C2780      H2786   1.110       .  S
C2781      H2787   1.085       .  S
C2781      C2782   1.366       .  D
C2782      C3005   1.488       .  S
C2783      H2788   1.086       .  S
C2783      C2784   1.364       .  D
C2784      C2981   1.486       .  S
C2789      C2790   1.535       .  S
C2789      C2795   1.541       .  S
C2789      C2793   1.557       .  S
C2789      C3089   1.545       .  S
C2790      H2797   1.086       .  S
C2790      C2791   1.362       .  D
C2791      C2792   1.540       .  S
C2791      C2957   1.483       .  S
C2792      C2796   1.538       .  S
C2792      C2794   1.534       .  S
C2792      H2798   1.108       .  S
C2793      H2799   1.081       .  S
C2793      C2794   1.370       .  D
C2794      C3008   1.490       .  S
C2795      H2800   1.086       .  S
C2795      C2796   1.369       .  D
C2796      C2969   1.496       .  S
C2801      C2802   1.551       .  S
C2801      C2807   1.542       .  S
C2801      C2805   1.539       .  S
C2801      C3029   1.542       .  S
C2802      H2809   1.080       .  S
C2802      C2803   1.361       .  D
C2803      C2804   1.534       .  S
C2803      C2945   1.487       .  S
C2804      C2808   1.534       .  S
C2804      C2806   1.541       .  S
C2804      H2810   1.109       .  S
C2805      H2811   1.085       .  S
C2805      C2806   1.367       .  D
C2806      C2936   1.489       .  S
C2807      H2812   1.086       .  S
C2807      C2808   1.367       .  D
C2808      C2960   1.487       .  S
C2813      C2814   1.543       .  S
C2813      C2819   1.548       .  S
C2813      C2817   1.540       .  S
C2813      C3053   1.539       .  S
C2814      H2821   1.086       .  S
C2814      C2815   1.363       .  D
C2815      C2816   1.533       .  S
C2815      C2984   1.482       .  S
C2816      C2820   1.533       .  S
C2816      C2818   1.539       .  S
C2816      H2822   1.107       .  S
C2817      H2823   1.086       .  S
C2817      C2818   1.373       .  D
C2818      C2933   1.500       .  S
C2819      H2824   1.083       .  S
C2819      C2820   1.359       .  D
C2820      C2921   1.470       .  S
C2825      C2826   1.534       .  S
C2825      C2831   1.546       .  S
C2825      C2829   1.539       .  S
C2825      C3077   1.533       .  S
C2826      H2833   1.086       .  S
C2826      C2827   1.361       .  D
C2827      C2828   1.532       .  S
C2827      C2897   1.484       .  S
C2828      C2832   1.541       .  S
C2828      C2830   1.537       .  S
C2828      H2834   1.104       .  S
C2829      H2835   1.086       .  S
C2829      C2830   1.357       .  D
C2830      C2909   1.468       .  S
C2831      H2836   1.083       .  S
C2831      C2832   1.376       .  D
C2832      C2996   1.504       .  S
C2837      C2838   1.531       .  S
C2837      C2843   1.543       .  S
C2837      C2841   1.551       .  S
C2837      C3044   1.541       .  S
C2838      H2845   1.087       .  S
C2838      C2839   1.354       .  D
C2839      C2840   1.538       .  S
C2839      C2924   1.472       .  S
C2840      C2844   1.544       .  S
C2840      C2842   1.540       .  S
C2840      H2846   1.102       .  S
C2841      H2847   1.080       .  S
C2841      C2842   1.366       .  D
C2842      C2885   1.496       .  S
C2843      H2848   1.085       .  S
C2843      C2844   1.376       .  D
C2844      C2900   1.506       .  S
C2849      C2850   1.551       .  S
C2849      C2855   1.546       .  S
C2849      C2853   1.541       .  S
C2849      C3104   1.548       .  S
C2850      H2857   1.082       .  S
C2850      C2851   1.361       .  D
C2851      C2852   1.538       .  S
C2851      C2873   1.487       .  S
C2852      C2856   1.534       .  S
C2852      C2854   1.546       .  S
C2852      H2858   1.110       .  S
C2853      H2859   1.084       .  S
C2853      C2854   1.370       .  D
C2854      C2888   1.500       .  S
C2855      H2860   1.086       .  S
C2855      C2856   1.368       .  D
C2856      C2948   1.488       .  S
C2861      C2862   1.542       .  S
C2861      C2867   1.549       .  S
C2861      C2865   1.532       .  S
C2861      C3065   1.534       .  S
C2862      H2869   1.083       .  S
C2862      C2863   1.366       .  D
C2863      C2864   1.539       .  S
C2863      C2972   1.484       .  S
C2864      C2868   1.540       .  S
C2864      C2866   1.537       .  S
C2864      H2870   1.111       .  S
C2865      H2871   1.087       .  S
C2865      C2866   1.357       .  D
C2866      C2912   1.474       .  S
C2867      H2872   1.086       .  S
C2867      C2868   1.368       .  D
C2868      C2876   1.491       .  S
C2873      C2874   1.399       .  A
C2873      C2878   1.415       .  A
C2874      H2883   1.078       .  S
C2874      C2875   1.402       .  A
C2875      C2876   1.410       .  A
C2875      S2879   1.798       .  S
C2876      C2877   1.405       .  A
C2877      H2884   1.084       .  S
C2877      C2878   1.404       .  A
C2878      S2880   1.804       .  S
S2879      H2882   1.407       .  S
S2880      H2881   1.402       .  S
C2885      C2886   1.406       .  A
C2885      C2890   1.412       .  A
C2886      H2895   1.084       .  S
C2886      C2887   1.405       .  A
C2887      C2888   1.422       .  A
C2887      S2891   1.802       .  S
C2888      C2889   1.402       .  A
C2889      H2896   1.076       .  S
C2889      C2890   1.392       .  A
C2890      S2892   1.796       .  S
S2891      H2894   1.397       .  S
S2892      H2893   1.406       .  S
C2897      C2898   1.399       .  A
C2897      C2902   1.410       .  A
C2898      H2907   1.082       .  S
C2898      C2899   1.401       .  A
C2899      C2900   1.424       .  A
C2899      S2903   1.805       .  S
C2900      C2901   1.412       .  A
C2901      H2908   1.082       .  S
C2901      C2902   1.398       .  A
C2902      S2904   1.804       .  S
S2903      H2906   1.407       .  S
S2904      H2905   1.404       .  S
C2909      C2910   1.398       .  A
C2909      C2914   1.408       .  A
C2910      H2919   1.084       .  S
C2910      C2911   1.394       .  A
C2911      C2912   1.408       .  A
C2911      S2915   1.795       .  S
C2912      C2913   1.403       .  A
C2913      H2920   1.084       .  S
C2913      C2914   1.398       .  A
C2914      S2916   1.802       .  S
S2915      H2918   1.404       .  S
S2916      H2917   1.403       .  S
C2921      C2922   1.400       .  A
C2921      C2926   1.414       .  A
C2922      H2931   1.085       .  S
C2922      C2923   1.397       .  A
C2923      C2924   1.414       .  A
C2923      S2927   1.807       .  S
C2924      C2925   1.399       .  A
C2925      H2932   1.084       .  S
C2925      C2926   1.397       .  A
C2926      S2928   1.809       .  S
S2927      H2930   1.399       .  S
S2928      H2929   1.400       .  S
C2933      C2934   1.407       .  A
C2933      C2938   1.421       .  A
C2934      H2943   1.083       .  S
C2934      C2935   1.400       .  A
C2935      C2936   1.416       .  A
C2935      S2939   1.802       .  S
C2936      C2937   1.400       .  A
C2937      H2944   1.082       .  S
C2937      C2938   1.400       .  A
C2938      S2940   1.805       .  S
S2939      H2942   1.402       .  S
S2940      H2941   1.407       .  S
C2945      C2946   1.402       .  A
C2945      C2950   1.411       .  A
C2946      H2955   1.084       .  S
C2946      C2947   1.399       .  A
C2947      C2948   1.413       .  A
C2947      S2951   1.794       .  S
C2948      C2949   1.403       .  A
C2949      H2956   1.084       .  S
C2949      C2950   1.401       .  A
C2950      S2952   1.794       .  S
S2951      H2954   1.402       .  S
S2952      H2953   1.406       .  S
C2957      C2958   1.400       .  A
C2957      C2962   1.417       .  A
C2958      H2967   1.084       .  S
C2958      C2959   1.397       .  A
C2959      C2960   1.415       .  A
C2959      S2963   1.797       .  S
C2960      C2961   1.402       .  A
C2961      H2968   1.084       .  S
C2961      C2962   1.396       .  A
C2962      S2964   1.800       .  S
S2963      H2966   1.401       .  S
S2964      H2965   1.401       .  S
C2969      C2970   1.405       .  A
C2969      C2974   1.418       .  A
C2970      H2979   1.083       .  S
C2970      C2971   1.398       .  A
C2971      C2972   1.415       .  A
C2971      S2975   1.802       .  S
C2972      C2973   1.400       .  A
C2973      H2980   1.084       .  S
C2973      C2974   1.398       .  A
C2974      S2976   1.793       .  S
S2975      H2978   1.399       .  S
S2976      H2977   1.398       .  S
C2981      C2982   1.401       .  A
C2981      C2986   1.416       .  A
C2982      H2991   1.084       .  S
C2982      C2983   1.397       .  A
C2983      C2984   1.411       .  A
C2983      S2987   1.798       .  S
C2984      C2985   1.402       .  A
C2985      H2992   1.084       .  S
C2985      C2986   1.401       .  A
C2986      S2988   1.797       .  S
S2987      H2990   1.407       .  S
S2988      H2989   1.402       .  S
C2993      C2994   1.400       .  A
C2993      C2998   1.419       .  A
C2994      H3003   1.078       .  S
C2994      C2995   1.402       .  A
C2995      C2996   1.421       .  A
C2995      S2999   1.800       .  S
C2996      C2997   1.407       .  A
C2997      H3004   1.083       .  S
C2997      C2998   1.397       .  A
C2998      S3000   1.806       .  S
S2999      H3002   1.408       .  S
S3000      H3001   1.398       .  S
C3005      C3006   1.401       .  A
C3005      C3010   1.416       .  A
C3006      H3015   1.080       .  S
C3006      C3007   1.399       .  A
C3007      C3008   1.412       .  A
C3007      S3011   1.799       .  S
C3008      C3009   1.405       .  A
C3009      H3016   1.084       .  S
C3009      C3010   1.407       .  A
C3010      S3012   1.804       .  S
S3011      H3014   1.406       .  S
S3012      H3013   1.403       .  S
C3017      C3018   1.400       .  A
C3017      C3022   1.410       .  A
C3018      H3027   1.084       .  S
C3018      C3019   1.404       .  A
C3019      C3020   1.427       .  A
C3019      S3023   1.805       .  S
C3020      C3021   1.413       .  A
C3021      H3028   1.079       .  S
C3021      C3022   1.396       .  A
C3022      S3024   1.805       .  S
S3023      H3026   1.401       .  S
S3024      H3025   1.407       .  S
C3029      C3030   1.411       .  A
C3029      C3034   1.424       .  A
C3030      H3039   1.074       .  S
C3030      C3031   1.394       .  A
C3031      C3032   1.412       .  A
C3031      S3035   1.804       .  S
C3032      C3033   1.401       .  A
C3033      H3040   1.082       .  S
C3033      C3034   1.406       .  A
C3034      S3036   1.809       .  S
S3035      H3038   1.408       .  S
S3036      H3037   1.407       .  S
C3041      C3042   1.395       .  A
C3041      C3046   1.404       .  A
C3042      H3051   1.083       .  S
C3042      C3043   1.402       .  A
C3043      C3044   1.427       .  A
C3043      S3047   1.811       .  S
C3044      C3045   1.415       .  A
C3045      H3052   1.074       .  S
C3045      C3046   1.400       .  A
C3046      S3048   1.807       .  S
S3047      H3050   1.406       .  S
S3048      H3049   1.405       .  S
C3053      C3054   1.408       .  A
C3053      C3058   1.422       .  A
C3054      H3063   1.078       .  S
C3054      C3055   1.395       .  A
C3055      C3056   1.416       .  A
C3055      S3059   1.802       .  S
C3056      C3057   1.404       .  A
C3057      H3064   1.082       .  S
C3057      C3058   1.408       .  A
C3058      S3060   1.809       .  S
S3059      H3062   1.408       .  S
S3060      H3061   1.407       .  S
C3065      C3066   1.409       .  A
C3065      C3070   1.424       .  A
C3066      H3075   1.083       .  S
C3066      C3067   1.399       .  A
C3067      C3068   1.418       .  A
C3067      S3071   1.801       .  S
C3068      C3069   1.401       .  A
C3069      H3076   1.083       .  S
C3069      C3070   1.396       .  A
C3070      S3072   1.799       .  S
S3071      H3074   1.407       .  S
S3072      H3073   1.405       .  S
C3077      C3078   1.414       .  A
C3077      C3082   1.425       .  A
C3078      H3087   1.082       .  S
C3078      C3079   1.395       .  A
C3079      C3080   1.406       .  A
C3079      S3083   1.805       .  S
C3080      C3081   1.399       .  A
C3081      H3088   1.084       .  S
C3081      C3082   1.399       .  A
C3082      S3084   1.805       .  S
S3083      H3086   1.406       .  S
S3084      H3085   1.404       .  S
C3089      C3090   1.414       .  A
C3089      C3094   1.429       .  A
C3090      H3099   1.076       .  S
C3090      C3091   1.404       .  A
C3091      C3092   1.407       .  A
C3091      S3095   1.805       .  S
C3092      C3093   1.393       .  A
C3093      H3100   1.083       .  S
C3093      C3094   1.401       .  A
C3094      S3096   1.808       .  S
S3095      H3098   1.405       .  S
S3096      H3097   1.406       .  S
C3101      C3102   1.405       .  A
C3101      C3106   1.414       .  A
C3102      H3111   1.081       .  S
C3102      C3103   1.408       .  A
C3103      C3104   1.423       .  A
C3103      S3107   1.808       .  S
C3104      C3105   1.412       .  A
C3105      H3112   1.077       .  S
C3105      C3106   1.399       .  A
C3106      S3108   1.801       .  S
S3107      H3110   1.407       .  S
S3108      H3109   1.408       .  S
