geometry optimzed in LAMMPS
_audit_creation_date              2020-12-01 
_audit_creation_method            'lammps2cif' 
_symmetry_space_group_name_H-M    'P1' 
_symmetry_Int_Tables_number       1 
_symmetry_cell_setting            triclinic 
loop_ 
_symmetry_equiv_pos_as_xyz 
  x,y,z 
_cell_length_a                    25.9838996 
_cell_length_b                    25.82148448838475 
_cell_length_c                    30.187583521634746 
_cell_angle_alpha                 89.46254029255675 
_cell_angle_beta                  87.64375620370426 
_cell_angle_gamma                 90.02185442106604 
loop_ 
_atom_site_label 
_atom_site_type_symbol 
_atom_site_fract_x 
_atom_site_fract_y 
_atom_site_fract_z 
_atom_site_charge 
O1          O  0.38628602  0.40724860  0.44379781    -0.73700
O2          O  0.44344206  0.43501619  0.38903612    -0.52600
C3          C  0.40352221  0.40890828  0.40316340     0.80100
O4          O  0.41759432  0.62761249  0.57710243    -0.58300
O5          O  0.44358309  0.57458431  0.63296924    -0.51300
C6          C  0.42082963  0.61539163  0.61827298     0.72100
O7          O  0.42238810  0.61205252  0.42833172    -0.72800
O8          O  0.45793680  0.55323733  0.38007970    -0.53400
C9          C  0.43233318  0.59462865  0.38893354     0.78100
O10         O  0.39151153  0.40961363  0.59428750    -0.58000
O11         O  0.43641520  0.45678858  0.64332107    -0.51100
C12         C  0.40404333  0.42138339  0.63401701     0.74700
Zr13       Zr  0.41058531  0.43754672  0.51684739     2.54700
O14         O  0.32106087  0.46571895  0.51928463    -0.78500
O15         O  0.38265782  0.34764913  0.52357320    -0.91900
Zr16       Zr  0.43733906  0.58774697  0.50559614     2.64700
O17         O  0.34433274  0.59964878  0.50590802    -0.96900
O18         O  0.45212764  0.68061597  0.49856268    -0.79000
O19         O  0.42450493  0.50907680  0.46748819    -0.82300
O20         O  0.42082130  0.51651298  0.55490760    -2.17000
O21         O  0.56622426  0.37898281  0.59068985    -0.65700
O22         O  0.54337217  0.44231265  0.64010026    -0.50300
C23         C  0.56206690  0.39735065  0.62998576     0.73100
O24         O  0.62190760  0.57744682  0.43276666    -0.58600
O25         O  0.56757344  0.54366672  0.38272862    -0.50600
C26         C  0.60741117  0.57016959  0.39314656     0.74900
O27         O  0.61170043  0.59257847  0.58079259    -0.70000
O28         O  0.55503517  0.56245589  0.63489696    -0.48700
C29         C  0.59443957  0.58926198  0.62135399     0.76200
O30         O  0.58188768  0.37451401  0.44328149    -0.65300
O31         O  0.55509054  0.42791184  0.38815090    -0.52500
C32         C  0.57806477  0.38728475  0.40226101     0.74600
Zr33       Zr  0.56187968  0.41232226  0.51581556     2.77500
O34         O  0.65521738  0.41398782  0.51996480    -0.96100
O35         O  0.56297660  0.31808181  0.51714181    -0.76900
Zr36       Zr  0.58821799  0.56172577  0.50782629     2.70100
O37         O  0.67892390  0.53920585  0.51133930    -0.78200
O38         O  0.60591890  0.65370269  0.49703153    -0.97200
Zr39       Zr  0.50306589  0.49278823  0.42588055     2.21500
Zr40       Zr  0.49618450  0.50678969  0.59718775     2.11100
O41         O  0.57463360  0.48972966  0.55583334    -2.45900
O42         O  0.57825605  0.48370874  0.46786281    -0.78000
O43         O  0.48495758  0.42773700  0.55858738    -0.70100
O44         O  0.51486052  0.57218871  0.46419303    -2.31100
O45         O  0.48735597  0.41993026  0.47398048    -2.27300
O46         O  0.51099860  0.57955710  0.54930880    -0.71900
H47         H  0.39081667  0.52288060  0.57406972     0.80100
H48         H  0.52080956  0.60071411  0.44367099     0.81200
H49         H  0.60316077  0.48589644  0.57516432     0.83400
H50         H  0.48328104  0.38838893  0.45757028     0.81000
H51         H  0.48273141  0.68711231  0.51619204     0.44000
H52         H  0.57922999  0.67134068  0.51571873     0.43000
H53         H  0.69699863  0.57294650  0.51180388     0.42700
H54         H  0.66501412  0.37718357  0.52353915     0.40600
H55         H  0.52690250  0.30810487  0.52489053     0.43800
H56         H  0.40528593  0.32857352  0.50218029     0.38500
H57         H  0.31285106  0.47309582  0.55091066     0.44700
H58         H  0.33330144  0.58084510  0.47948244     0.41100
H59         H  0.66793065  0.42341309  0.48957992     0.46000
H60         H  0.34817872  0.34689398  0.51079078     0.44700
H61         H  0.33068189  0.57869344  0.53138634     0.44900
H62         H  0.63845038  0.65982696  0.51212846     0.45200
C63         C  0.62808700  0.67381646  0.72144505     0.88100
C64         C  0.66578422  0.64313865  0.74991572    -0.52100
C65         C  0.69222333  0.67371325  0.77785187     0.11000
C66         C  0.67892244  0.73130264  0.77502319     0.22000
C67         C  0.59338258  0.70372809  0.75506215    -0.52800
C68         C  0.62036074  0.73393783  0.78287421     0.11100
C69         C  0.66140968  0.71585516  0.69777919    -0.52400
C70         C  0.68834317  0.74510276  0.72602795     0.11700
H71         H  0.67181074  0.60163712  0.74736172     0.16200
H72         H  0.70088141  0.75589137  0.79770791     0.02000
H73         H  0.55158103  0.70203320  0.75613703     0.16500
H74         H  0.66519753  0.72050039  0.66198744     0.16300
C75         C  0.64387361  0.34238899  0.72303198     0.88100
C76         C  0.60939402  0.30876137  0.75445786    -0.52100
C77         C  0.63644713  0.27586078  0.78039744     0.11000
C78         C  0.69515837  0.27958807  0.77290894     0.22000
C79         C  0.68101132  0.36999462  0.75335710    -0.52800
C80         C  0.70777401  0.33694345  0.77918133     0.11100
C81         C  0.67834006  0.30352434  0.69670775    -0.52400
C82         C  0.70518164  0.27080129  0.72316265     0.11700
H83         H  0.56760708  0.31085290  0.75600355     0.16200
H84         H  0.71714474  0.25302349  0.79431203     0.02000
H85         H  0.68662243  0.41169021  0.75359176     0.16500
H86         H  0.68214308  0.30301603  0.66074932     0.16300
C87         C  0.33589484  0.66953474  0.71591903     0.88100
C88         C  0.36832670  0.70577099  0.74385577    -0.52100
C89         C  0.33946913  0.73611901  0.77214201     0.11000
C90         C  0.28106560  0.72779905  0.76986625     0.22000
C91         C  0.30179361  0.63900746  0.74989225    -0.52800
C92         C  0.27293797  0.66966025  0.77764479     0.11100
C93         C  0.29767623  0.70542375  0.69239434    -0.52400
C94         C  0.26903322  0.73577565  0.72099819     0.11700
H95         H  0.41015519  0.70669556  0.74189524     0.16200
H96         H  0.25752483  0.75238977  0.79295578     0.02000
H97         H  0.29855240  0.59704736  0.75033152     0.16500
H98         H  0.29243174  0.70527906  0.65688967     0.16300
C99         C  0.32903228  0.31792834  0.70578948     0.88100
C100        C  0.29553422  0.34953795  0.73904517    -0.52100
C101        C  0.27312770  0.32016628  0.77238334     0.11000
C102        C  0.28599773  0.26227578  0.76968052     0.22000
C103        C  0.36801314  0.28871583  0.73421520    -0.52800
C104        C  0.34512938  0.25944532  0.76766129     0.11100
C105        C  0.29277684  0.27564975  0.68985196    -0.52400
C106        C  0.27029658  0.24700269  0.72327224     0.11700
H107        H  0.28869156  0.39084566  0.73557802     0.16200
H108        H  0.26720805  0.23852449  0.79668194     0.02000
H109        H  0.40944182  0.29039813  0.72798753     0.16500
H110        H  0.28409249  0.27005320  0.65530737     0.16300
N111        N  0.97863954  0.91586600  0.68695637    -0.35000
N112        N  0.90219503  0.99970093  0.68467271    -0.55500
N113        N  0.98319554  0.07520188  0.68345007    -0.35000
N114        N  0.05933018  0.99120144  0.68794480    -0.55500
C115        C  0.93467068  0.88964509  0.69698812     0.28600
C116        C  0.01843118  0.88531342  0.69850127     0.28600
C117        C  0.94197580  0.10613733  0.69233123     0.28600
C118        C  0.02567885  0.10154539  0.69448272     0.28600
C119        C  0.87130964  0.95860278  0.67850451     0.37200
C120        C  0.87354056  0.04245879  0.67747866     0.37200
C121        C  0.08857610  0.94832438  0.68217856     0.37200
C122        C  0.09093522  0.03205476  0.68050729     0.37200
C123        C  0.94657576  0.84157815  0.71488576    -0.20300
C124        C  0.99950784  0.83887586  0.71584976    -0.20300
C125        C  0.95860624  0.15308682  0.70846277    -0.20300
C126        C  0.01144233  0.15017546  0.70989351    -0.20300
C127        C  0.82269084  0.97536061  0.66737738    -0.21300
C128        C  0.82410422  0.02850021  0.66682521    -0.21300
C129        C  0.13905109  0.96197222  0.67093648    -0.21300
C130        C  0.14056474  0.01508667  0.66988385    -0.21300
C131        C  0.88452712  0.90666519  0.68761982    -0.16700
C132        C  0.07117281  0.89748307  0.69123499    -0.16700
C133        C  0.07699151  0.08396621  0.68849857    -0.16700
C134        C  0.89010925  0.09361230  0.68466205    -0.16700
H135        H  0.91991682  0.81134944  0.72568911     0.16200
H136        H  0.02152529  0.80628759  0.72755243     0.16200
H137        H  0.93514863  0.18603590  0.71815776     0.16200
H138        H  0.03654241  0.18059161  0.72074583     0.16200
H139        H  0.78921460  0.95180686  0.66155987     0.14500
H140        H  0.79208439  0.05390728  0.66039559     0.14500
H141        H  0.17160475  0.93641487  0.66519866     0.14500
H142        H  0.17459627  0.03853780  0.66324395     0.14500
H143        H  0.98121060  0.94997879  0.66845620     0.27800
H144        H  0.98312809  0.04035010  0.66651542     0.27800
C145        C  0.65080900  0.66539883  0.30003290     0.88100
C146        C  0.61877514  0.70254908  0.27208191    -0.52100
C147        C  0.64793468  0.73491614  0.24543004     0.11000
C148        C  0.70621358  0.72766325  0.24906428     0.22000
C149        C  0.68637630  0.63721199  0.26610667    -0.52800
C150        C  0.71530556  0.67011741  0.23966682     0.11100
C151        C  0.68691170  0.70104563  0.32549602    -0.52400
C152        C  0.71607043  0.73332158  0.29853441     0.11700
H153        H  0.57693505  0.70273695  0.27279674     0.16200
H154        H  0.72983279  0.75406972  0.22715934     0.02000
H155        H  0.68847606  0.59534482  0.26335701     0.16500
H156        H  0.68962832  0.70020831  0.36130471     0.16300
C157        C  0.35542902  0.68956599  0.31692071     0.88100
C158        C  0.32619922  0.65052905  0.28911023    -0.52100
C159        C  0.30094943  0.67274754  0.25514831     0.11000
C160        C  0.30626619  0.73176840  0.25219481     0.22000
C161        C  0.39076513  0.71944625  0.28324388    -0.52800
C162        C  0.36468646  0.74158186  0.24939463     0.11100
C163        C  0.31436136  0.72891742  0.33224810    -0.52400
C164        C  0.28855376  0.75048920  0.29843460     0.11700
H165        H  0.32562161  0.60906704  0.29562543     0.16200
H166        H  0.28504474  0.74967197  0.22472721     0.02000
H167        H  0.43214534  0.72297356  0.28608359     0.16500
H168        H  0.30520248  0.73762865  0.36683402     0.16300
N169        N  0.90214098  0.63348406  0.99395470    -0.35000
N170        N  0.97722677  0.62185184  0.92115148    -0.55500
N171        N  0.04182971  0.56546939  0.97912618    -0.35000
N172        N  0.96789878  0.57656673  0.05187127    -0.55500
C173        C  0.87123047  0.64196662  0.95946807     0.28600
C174        C  0.87189575  0.63333880  0.03157023     0.28600
C175        C  0.07798715  0.58196727  0.94871185     0.28600
C176        C  0.06691137  0.54453222  0.01313450     0.28600
C177        C  0.93714059  0.63510074  0.89662881     0.37200
C178        C  0.01871948  0.61733042  0.89324537     0.37200
C179        C  0.93301393  0.59219311  0.08322183     0.37200
C180        C  0.00049411  0.54404573  0.07193573     0.37200
C181        C  0.82114031  0.64985500  0.97583020    -0.20300
C182        C  0.82169263  0.64510515  0.02120834    -0.20300
C183        C  0.12664352  0.57088077  0.96383305    -0.20300
C184        C  0.11949217  0.54663873  0.00442115    -0.20300
C185        C  0.95339356  0.63974235  0.85237258    -0.21300
C186        C  0.00544765  0.62925242  0.85034389    -0.21300
C187        C  0.94498868  0.57119458  0.12403893    -0.21300
C188        C  0.98754296  0.54028510  0.11673714    -0.21300
C189        C  0.88609524  0.64157501  0.91360937    -0.16700
C190        C  0.88733399  0.61960993  0.07463991    -0.16700
C191        C  0.04257180  0.51919935  0.04983332    -0.16700
C192        C  0.06821534  0.60328247  0.90656144    -0.16700
H193        H  0.78735381  0.65749944  0.95701367     0.16200
H194        H  0.78831810  0.64749111  0.04375733     0.16200
H195        H  0.16347915  0.57827273  0.94692425     0.16200
H196        H  0.14934061  0.53200338  0.02514128     0.16200
H197        H  0.93027048  0.64980806  0.82455008     0.20200
H198        H  0.03031506  0.62918737  0.82068588     0.14500
H199        H  0.92428561  0.57622608  0.15554598     0.14500
H200        H  0.00762114  0.51914557  0.14179781     0.14500
H201        H  0.94184431  0.62978420  0.99260018     0.27800
H202        H  0.00241038  0.56207951  0.97515106     0.27800
C203        C  0.36431819  0.31622083  0.30851800     0.88100
C204        C  0.39657214  0.28194058  0.27621434    -0.52100
C205        C  0.36771008  0.25537379  0.24705197     0.11000
C206        C  0.30947904  0.26525978  0.25272113     0.22000
C207        C  0.33265959  0.35090092  0.27833001    -0.52800
C208        C  0.30401508  0.32416072  0.24942404     0.11100
C209        C  0.32444908  0.27883667  0.33098982    -0.52400
C210        C  0.29555541  0.25258958  0.30155658     0.11700
H211        H  0.43831192  0.27949957  0.27603554     0.16200
H212        H  0.28599647  0.24396719  0.22887395     0.02000
H213        H  0.33263524  0.39293264  0.27992031     0.16500
H214        H  0.31850092  0.27495454  0.36668474     0.16300
N215        N  0.91678258  0.00073245  0.33828313    -0.35000
N216        N  0.99388953  0.92081771  0.33764315    -0.55500
N217        N  0.07359233  0.00170224  0.33409252    -0.35000
N218        N  0.99683610  0.08160750  0.33866391    -0.55500
C219        C  0.88644860  0.95863624  0.34625421     0.28600
C220        C  0.88782173  0.04320316  0.34691366     0.28600
C221        C  0.10146729  0.95895651  0.34292624     0.28600
C222        C  0.10315416  0.04327405  0.34296682     0.28600
C223        C  0.95239723  0.89066638  0.33107442     0.37200
C224        C  0.03583101  0.89134666  0.32861148     0.37200
C225        C  0.95513125  0.11155302  0.33232769     0.37200
C226        C  0.03874983  0.11189690  0.33028692     0.37200
C227        C  0.83751623  0.97462515  0.36011847    -0.20300
C228        C  0.83835749  0.02793576  0.36053207    -0.20300
C229        C  0.14918380  0.97347887  0.35774314    -0.20300
C230        C  0.15024725  0.02669976  0.35773867    -0.20300
C231        C  0.96805903  0.84138433  0.31866256    -0.21300
C232        C  0.02100651  0.84184778  0.31699922    -0.21300
C233        C  0.97065451  0.16151854  0.32077202    -0.21300
C234        C  0.02366053  0.16169660  0.31947337    -0.21300
C235        C  0.90074066  0.90656184  0.33811879    -0.16700
C236        C  0.90335506  0.09512943  0.33880180    -0.16700
C237        C  0.09016429  0.09549683  0.33481694    -0.16700
C238        C  0.08706285  0.90758552  0.33371355    -0.16700
H239        H  0.80437056  0.95044361  0.36828816     0.16200
H240        H  0.80588433  0.05267758  0.36903109     0.16200
H241        H  0.18041487  0.94830056  0.36681055     0.16200
H242        H  0.18234790  0.05047795  0.36692317     0.16200
H243        H  0.94391473  0.80851371  0.31172690     0.14500
H244        H  0.04572777  0.80931923  0.30873193     0.14500
H245        H  0.94633830  0.19450212  0.31419898     0.14500
H246        H  0.04821796  0.19470826  0.31177524     0.14500
H247        H  0.95288529  0.00096257  0.32231648     0.27800
H248        H  0.03961293  0.00223149  0.31711672     0.27800
N249        N  0.43263345  0.91816674  0.00242556    -0.35000
N250        N  0.42865038  0.99904633  0.93420723    -0.55500
N251        N  0.43675764  0.07854173  0.00142667    -0.35000
N252        N  0.43743312  0.99765959  0.06996094    -0.55500
C253        C  0.41721760  0.89007167  0.96763250     0.28600
C254        C  0.42367888  0.88910739  0.03958907     0.28600
C255        C  0.42548841  0.10829674  0.96580753     0.28600
C256        C  0.42798613  0.10752955  0.03823197     0.28600
C257        C  0.43066359  0.95691140  0.90790396     0.37200
C258        C  0.43452740  0.04089019  0.90715331     0.37200
C259        C  0.44354763  0.95542924  0.09610515     0.37200
C260        C  0.44331570  0.03952258  0.09589728     0.37200
C261        C  0.39947588  0.84216235  0.98281867    -0.20300
C262        C  0.40368690  0.84150027  0.02808938    -0.20300
C263        C  0.41109276  0.15726893  0.98011511    -0.20300
C264        C  0.41258573  0.15676798  0.02564774    -0.20300
C265        C  0.43831161  0.97203899  0.86393806    -0.21300
C266        C  0.44081837  0.02517216  0.86346500    -0.21300
C267        C  0.45392466  0.97057734  0.13877918    -0.21300
C268        C  0.45358503  0.02374797  0.13868698    -0.21300
C269        C  0.42022802  0.90561974  0.92243267    -0.16700
C270        C  0.43380402  0.90382562  0.08350937    -0.16700
C271        C  0.43454604  0.09145377  0.08278920    -0.16700
C272        C  0.42854868  0.09292193  0.92071916    -0.16700
H273        H  0.38489792  0.81082743  0.96333090     0.16200
H274        H  0.39283074  0.80962669  0.05006545     0.16200
H275        H  0.40028203  0.19000755  0.95988532     0.16200
H276        H  0.40324704  0.18910691  0.04705227     0.16200
H277        H  0.44056582  0.94742161  0.83510232     0.14500
H278        H  0.44535019  0.04950754  0.83417837     0.14500
H279        H  0.45969332  0.94590557  0.16732943     0.14500
H280        H  0.45928873  0.04801398  0.16711193     0.14500
H281        H  0.45237374  0.95313462  0.00050931     0.27800
H282        H  0.45348071  0.04207055  0.00039920     0.27800
N283        N  0.90881112  0.38500295  0.99686657    -0.35000
N284        N  0.97626931  0.42365592  0.05956202    -0.55500
N285        N  0.05957784  0.43094737  0.98751397    -0.35000
N286        N  0.98936136  0.39193716  0.92676336    -0.55500
C287        C  0.87702374  0.38710248  0.03358013     0.28600
C288        C  0.87912140  0.38708474  0.96111531     0.28600
C289        C  0.08241970  0.43744632  0.02630057     0.28600
C290        C  0.09311769  0.40617196  0.95994617     0.28600
C291        C  0.94360548  0.39954359  0.08840250     0.37200
C292        C  0.01895783  0.43430161  0.08135159     0.37200
C293        C  0.94894945  0.38609232  0.90070962     0.37200
C294        C  0.03251903  0.39071519  0.90024536     0.37200
C295        C  0.82633436  0.38886002  0.02120147    -0.20300
C296        C  0.82761755  0.38934597  0.97554630    -0.20300
C297        C  0.13168175  0.41738927  0.02401752    -0.20300
C298        C  0.13885921  0.39803537  0.98144205    -0.20300
C299        C  0.96544029  0.39544857  0.12957114    -0.21300
C300        C  0.01413030  0.41723910  0.12481987    -0.21300
C301        C  0.96654069  0.38117339  0.85686812    -0.21300
C302        C  0.01957488  0.38352289  0.85666405    -0.21300
C303        C  0.89308507  0.38664214  0.07782701    -0.16700
C304        C  0.89663870  0.38527214  0.91592872    -0.16700
C305        C  0.08310359  0.39292181  0.91581805    -0.16700
C306        C  0.05853099  0.46437495  0.06171968    -0.16700
H307        H  0.79205365  0.39045408  0.04276032     0.16200
H308        H  0.79421526  0.39097381  0.95531096     0.16200
H309        H  0.15959155  0.41798461  0.04964269     0.16200
H310        H  0.17353367  0.37986548  0.96796312     0.16200
H311        H  0.94783923  0.37940719  0.15978830     0.14500
H312        H  0.04158921  0.42204956  0.15046182     0.14500
H313        H  0.94364135  0.37580628  0.82811168     0.14500
H314        H  0.04552362  0.38026323  0.82785262     0.14500
H315        H  0.94817286  0.37801488  0.99665541     0.27800
H316        H  0.02388917  0.44654401  0.98016079     0.27800
C317        C  0.65506154  0.33404856  0.30084383     0.88100
C318        C  0.68944974  0.36258674  0.26577247    -0.52100
C319        C  0.71528206  0.33003313  0.23738103     0.11000
C320        C  0.70424460  0.27245462  0.24598760     0.22000
C321        C  0.61938540  0.29981133  0.27410806    -0.52800
C322        C  0.64537591  0.26783379  0.24528617     0.11100
C323        C  0.69178984  0.29624914  0.32346691    -0.52400
C324        C  0.71714469  0.26402195  0.29461422     0.11700
H325        H  0.69396615  0.40440014  0.26423397     0.16200
H326        H  0.72536955  0.24624097  0.22256662     0.02000
H327        H  0.57761280  0.30141519  0.27717064     0.16500
H328        H  0.69790636  0.29570736  0.35885575     0.16300
N329        N  0.56852830  0.08404321  0.01483978    -0.35000
N330        N  0.56027302  0.00498654  0.94700778    -0.55500
N331        N  0.56826439  0.92497317  0.01569697    -0.35000
N332        N  0.57064944  0.00395783  0.08381848    -0.55500
C333        C  0.56133067  0.11470601  0.97904155     0.28600
C334        C  0.56447569  0.11414068  0.05126539     0.28600
C335        C  0.55723434  0.89527829  0.98066395     0.28600
C336        C  0.56353454  0.89479054  0.05251012     0.28600
C337        C  0.56810032  0.04692326  0.92032854     0.37200
C338        C  0.56631807  0.96286942  0.92096564     0.37200
C339        C  0.57945663  0.04590403  0.10889681     0.37200
C340        C  0.58079267  0.96192666  0.10904932     0.37200
C341        C  0.55281159  0.16518145  0.99288347    -0.20300
C342        C  0.55465849  0.16480668  0.03839691    -0.20300
C343        C  0.54551620  0.84541020  0.99540140    -0.20300
C344        C  0.54953617  0.84509704  0.04071960    -0.20300
C345        C  0.57770206  0.03131457  0.87694966    -0.21300
C346        C  0.57656811  0.97817390  0.87735523    -0.21300
C347        C  0.59415286  0.03034350  0.15062628    -0.21300
C348        C  0.59511714  0.97723324  0.15068259    -0.21300
C349        C  0.56596226  0.09915995  0.93418170    -0.16700
C350        C  0.57320266  0.09804476  0.09532451    -0.16700
C351        C  0.57502962  0.90992120  0.09590266    -0.16700
C352        C  0.56157312  0.91079035  0.93560008    -0.16700
H353        H  0.54660192  0.19896343  0.97229707     0.16200
H354        H  0.55027146  0.19828955  0.05951587     0.16200
H355        H  0.53570741  0.81246370  0.97550676     0.16200
H356        H  0.54331494  0.81191986  0.06246275     0.16200
H357        H  0.58511498  0.05564506  0.84800392     0.14500
H358        H  0.58293465  0.95362174  0.84879662     0.14500
H359        H  0.60344456  0.05468828  0.17817299     0.14500
H360        H  0.60504065  0.95272732  0.17832751     0.14500
H361        H  0.58140066  0.04621188  0.01399037     0.27800
H362        H  0.58462956  0.96152421  0.01391529     0.27800
C363        C  0.62009230  0.23401313  0.21523075    -0.16900
C364        C  0.60269541  0.20496108  0.18859016     0.07200
C365        C  0.58724903  0.16950908  0.15633992     0.09000
C366        C  0.57858573  0.13778873  0.12851041    -0.17700
C367        C  0.85534623  0.37722789  0.11347632    -0.16900
C368        C  0.82297822  0.36957629  0.14249933     0.07200
C369        C  0.78465899  0.35908490  0.17575525     0.09000
C370        C  0.75231602  0.34761278  0.20383107    -0.17700
C371        C  0.86314410  0.13350392  0.33503549    -0.16900
C372        C  0.82899856  0.16392548  0.32885844     0.07200
C373        C  0.78905256  0.19840373  0.31870541     0.09000
C374        C  0.75560217  0.22783821  0.30833549    -0.17700
C375        C  0.21767751  0.46959219  0.16995841    -0.16900
C376        C  0.22604223  0.42482017  0.17823290     0.07200
C377        C  0.24677382  0.37997768  0.19742751     0.09000
C378        C  0.27097042  0.35018506  0.21929326    -0.17700
C379        C  0.38965932  0.22225536  0.21255222    -0.16900
C380        C  0.40466002  0.19413246  0.18280406     0.07200
C381        C  0.41876170  0.16012318  0.14755699     0.09000
C382        C  0.42774010  0.12986197  0.11776351    -0.17700
C383        C  0.25214409  0.21950303  0.31445521    -0.16900
C384        C  0.21419414  0.19287033  0.32156286     0.07200
C385        C  0.16926229  0.16157139  0.32736902     0.09000
C386        C  0.13201202  0.13329610  0.33121667    -0.17700
C387        C  0.27216568  0.64241879  0.22495151    -0.16900
C388        C  0.25081551  0.61129999  0.20257880     0.07200
C389        C  0.23067672  0.56741073  0.18194747     0.09000
C390        C  0.21993667  0.52399271  0.17152114    -0.17700
C391        C  0.38907875  0.77241514  0.21409621    -0.16900
C392        C  0.40529259  0.79978504  0.18388944     0.07200
C393        C  0.41987128  0.83385946  0.14839493     0.09000
C394        C  0.42837139  0.86470313  0.11853779    -0.17700
C395        C  0.12790601  0.86994367  0.32845493    -0.16900
C396        C  0.16418337  0.84163465  0.32229898     0.07200
C397        C  0.20793483  0.81068541  0.31378749     0.09000
C398        C  0.24524397  0.78416799  0.30629086    -0.17700
C399        C  0.85082507  0.62786694  0.11148459    -0.16900
C400        C  0.81975853  0.63427885  0.14167924     0.07200
C401        C  0.78293854  0.64291116  0.17644642     0.09000
C402        C  0.75166529  0.65302456  0.20563662    -0.17700
C403        C  0.62595141  0.77107155  0.21479100    -0.16900
C404        C  0.60950137  0.80124573  0.18811679     0.07200
C405        C  0.59324989  0.83739189  0.15617713     0.09000
C406        C  0.58282235  0.86957180  0.12873594    -0.17700
C407        C  0.75446679  0.76857005  0.31440629    -0.16900
C408        C  0.78759117  0.79892400  0.32407795     0.07200
C409        C  0.82675930  0.83565680  0.33194894     0.09000
C410        C  0.86023903  0.86768068  0.33605845    -0.17700
C411        C  0.11820509  0.12051965  0.69387251    -0.16900
C412        C  0.15385937  0.14883383  0.69997435     0.07200
C413        C  0.19584054  0.18105951  0.70828569     0.09000
C414        C  0.23083441  0.20974409  0.71550692    -0.17700
C415        C  0.41987524  0.13195154  0.88643006    -0.16900
C416        C  0.40881434  0.16282619  0.85780957     0.07200
C417        C  0.39158840  0.19784238  0.82485200     0.09000
C418        C  0.37305297  0.22676207  0.79791982    -0.17700
C419        C  0.23559236  0.34035173  0.80435270    -0.16900
C420        C  0.20205404  0.35443052  0.83037732     0.07200
C421        C  0.16140273  0.36875086  0.86041613     0.09000
C422        C  0.12607539  0.37991711  0.88579178    -0.17700
C423        C  0.23199013  0.64961288  0.80637659    -0.16900
C424        C  0.19478152  0.63547913  0.82829387     0.07200
C425        C  0.14979250  0.62185559  0.85334087     0.09000
C426        C  0.11175933  0.61239923  0.87611239    -0.17700
C427        C  0.10976388  0.85691441  0.69486564    -0.16900
C428        C  0.14523610  0.82682924  0.69766303     0.07200
C429        C  0.18900987  0.79455081  0.70186635     0.09000
C430        C  0.22642766  0.76794755  0.70802485    -0.17700
C431        C  0.36173108  0.77167931  0.80288081    -0.16900
C432        C  0.37824033  0.80145289  0.82957205     0.07200
C433        C  0.39542498  0.83676448  0.86154108     0.09000
C434        C  0.40807720  0.86751175  0.88910088    -0.17700
C435        C  0.61235145  0.24057759  0.81242748    -0.16900
C436        C  0.59565052  0.20979616  0.83977944     0.07200
C437        C  0.58041320  0.17237336  0.87231904     0.09000
C438        C  0.57152015  0.13948664  0.90034814    -0.17700
C439        C  0.85131792  0.13440529  0.68722315    -0.16900
C440        C  0.81754110  0.16659622  0.69087186     0.07200
C441        C  0.77718044  0.20311947  0.69769975     0.09000
C442        C  0.74332930  0.23392998  0.70677156    -0.17700
C443        C  0.85775140  0.38131119  0.88318780    -0.16900
C444        C  0.82344238  0.37555099  0.85808829     0.07200
C445        C  0.78226431  0.36547632  0.83054060     0.09000
C446        C  0.74750147  0.35397611  0.80741902    -0.17700
C447        C  0.59664603  0.76782209  0.81554580    -0.16900
C448        C  0.58187434  0.79876344  0.84295637     0.07200
C449        C  0.56986809  0.83694672  0.87501808     0.09000
C450        C  0.56387281  0.87039282  0.90242433    -0.17700
C451        C  0.73271914  0.65562000  0.80532652    -0.16900
C452        C  0.76843312  0.64836832  0.82889374     0.07200
C453        C  0.81048395  0.64575764  0.85704748     0.09000
C454        C  0.84557345  0.64493465  0.88202075    -0.17700
C455        C  0.84324048  0.86927330  0.69018213    -0.16900
C456        C  0.80695086  0.84053407  0.69410359     0.07200
C457        C  0.76369113  0.80861073  0.70172518     0.09000
C458        C  0.72775210  0.78084057  0.71118295    -0.17700
C459        C  0.59889306  0.64061216  0.68987297    -0.14800
C460        C  0.62267009  0.61843888  0.65440281    -0.30000
H461        H  0.55741024  0.63671453  0.69495511     0.14200
H462        H  0.66358984  0.62501026  0.64780563     0.14800
C463        C  0.58161787  0.36312465  0.66478156    -0.14800
C464        C  0.61463760  0.37986616  0.69443139    -0.30000
H465        H  0.57587431  0.32167718  0.66133029     0.14200
H466        H  0.62287430  0.42106366  0.69621427     0.14800
C467        C  0.39543564  0.65126344  0.65022757    -0.14800
C468        C  0.36728248  0.63391269  0.68557498    -0.30000
H469        H  0.39501510  0.69231822  0.64200117     0.14200
H470        H  0.36520066  0.59239555  0.69174737     0.14800
C471        C  0.63895360  0.59628319  0.35798356    -0.14800
C472        C  0.61796908  0.62944838  0.32938050    -0.30000
H473        H  0.68055748  0.59549100  0.36041451     0.14200
H474        H  0.57626437  0.63279976  0.32907926     0.14800
C475        C  0.38119432  0.39157392  0.67221907    -0.14800
C476        C  0.35194045  0.34935401  0.66710665    -0.30000
H477        H  0.38996527  0.40358998  0.70548554     0.14200
H478        H  0.34342281  0.33743022  0.63375647     0.14800
C479        C  0.38182609  0.66488768  0.35550707    -0.14800
C480        C  0.41283273  0.62356689  0.35062137    -0.30000
H481        H  0.37211026  0.67889263  0.38864323     0.14200
H482        H  0.42181329  0.60891100  0.31756191     0.14800
C483        C  0.60191243  0.35214364  0.36941174    -0.14800
C484        C  0.62679806  0.37001364  0.33253311    -0.30000
H485        H  0.60268900  0.31101631  0.37731749     0.14200
H486        H  0.62878810  0.41151969  0.32629027     0.14800
C487        C  0.37399701  0.37860469  0.37119299    -0.14800
C488        C  0.39617943  0.34755303  0.34018148    -0.30000
H489        H  0.33227399  0.37874745  0.37547618     0.14200
H490        H  0.43793298  0.34496991  0.33745106     0.14800
loop_ 
_geom_bond_atom_site_label_1 
_geom_bond_atom_site_label_2 
_geom_bond_distance 
_geom_bond_site_symmetry_2 
_ccdc_geom_bond_type 
O1          Zr13   2.454       .  S
O1            C3   1.289       .  A
O2          Zr39   2.456       .  S
O2            C3   1.292       .  A
C3          C487   1.486       .  S
O4          Zr16   2.436       .  S
O4            C6   1.286       .  A
O5          Zr40   2.453       .  S
O5            C6   1.292       .  A
C6          C467   1.479       .  S
O7          Zr16   2.456       .  S
O7            C9   1.292       .  A
O8          Zr39   2.412       .  S
O8            C9   1.284       .  A
C9          C480   1.478       .  S
O10         Zr13   2.471       .  S
O10          C12   1.294       .  A
O11         Zr40   2.409       .  S
O11          C12   1.283       .  A
C12         C475   1.484       .  S
Zr13         O14   2.436       .  S
Zr13         O15   2.436       .  S
Zr13         O19   2.380       .  S
Zr13         O20   2.370       .  S
Zr13         O43   2.362       .  S
Zr13         O45   2.379       .  S
O14          H57   0.990       .  S
O15          H56   0.990       .  S
O15          H60   0.990       .  S
Zr16         O17   2.436       .  S
Zr16         O18   2.434       .  S
Zr16         O20   2.383       .  S
Zr16         O19   2.374       .  S
Zr16         O44   2.363       .  S
Zr16         O46   2.377       .  S
O17          H58   0.990       .  S
O17          H61   0.990       .  S
O18          H51   0.990       .  S
O19         Zr39   2.392       .  S
O20         Zr40   2.393       .  S
O20          H47   0.967       .  S
O21         Zr33   2.418       .  S
O21          C23   1.282       .  A
O22         Zr40   2.459       .  S
O22          C23   1.293       .  A
C23         C463   1.473       .  S
O24         Zr36   2.426       .  S
O24          C26   1.284       .  A
O25         Zr39   2.453       .  S
O25          C26   1.292       .  A
C26         C471   1.472       .  S
O27         Zr36   2.450       .  S
O27          C29   1.289       .  A
O28         Zr40   2.423       .  S
O28          C29   1.286       .  A
C29         C460   1.475       .  S
O30         Zr33   2.442       .  S
O30          C32   1.286       .  A
O31         Zr39   2.417       .  S
O31          C32   1.285       .  A
C32         C483   1.469       .  S
Zr33         O34   2.434       .  S
Zr33         O35   2.434       .  S
Zr33         O41   2.375       .  S
Zr33         O42   2.361       .  S
Zr33         O45   2.362       .  S
Zr33         O43   2.370       .  S
O34          H54   0.990       .  S
O34          H59   0.990       .  S
O35          H55   0.990       .  S
Zr36         O37   2.434       .  S
Zr36         O38   2.435       .  S
Zr36         O42   2.377       .  S
Zr36         O41   2.364       .  S
Zr36         O46   2.369       .  S
Zr36         O44   2.375       .  S
O37          H53   0.990       .  S
O38          H52   0.990       .  S
O38          H62   0.990       .  S
Zr39         O42   2.383       .  S
Zr39         O44   2.389       .  S
Zr39         O45   2.390       .  S
Zr40         O41   2.389       .  S
Zr40         O43   2.384       .  S
Zr40         O46   2.381       .  S
O41          H49   0.967       .  S
O44          H48   0.966       .  S
O45          H50   0.965       .  S
C63          C64   1.544       .  S
C63          C69   1.540       .  S
C63          C67   1.543       .  S
C63         C459   1.514       .  S
C64          H71   1.086       .  S
C64          C65   1.366       .  D
C65          C66   1.529       .  S
C65         C451   1.442       .  S
C66          C70   1.528       .  S
C66          C68   1.532       .  S
C66          H72   1.112       .  S
C67          H73   1.086       .  S
C67          C68   1.366       .  D
C68         C447   1.444       .  S
C69          H74   1.086       .  S
C69          C70   1.359       .  D
C70         C458   1.433       .  S
C75          C76   1.540       .  S
C75          C81   1.548       .  S
C75          C79   1.537       .  S
C75         C464   1.516       .  S
C76          H83   1.086       .  S
C76          C77   1.365       .  D
C77          C78   1.536       .  S
C77         C435   1.446       .  S
C78          C82   1.533       .  S
C78          C80   1.532       .  S
C78          H84   1.112       .  S
C79          H85   1.087       .  S
C79          C80   1.361       .  D
C80         C446   1.437       .  S
C81          H86   1.086       .  S
C81          C82   1.368       .  D
C82         C442   1.450       .  S
C87          C88   1.539       .  S
C87          C93   1.548       .  S
C87          C91   1.539       .  S
C87         C468   1.518       .  S
C88          H95   1.086       .  S
C88          C89   1.366       .  D
C89          C90   1.537       .  S
C89         C431   1.449       .  S
C90          C94   1.533       .  S
C90          C92   1.531       .  S
C90          H96   1.112       .  S
C91          H97   1.087       .  S
C91          C92   1.361       .  D
C92         C423   1.438       .  S
C93          H98   1.086       .  S
C93          C94   1.369       .  D
C94         C430   1.449       .  S
C99         C100   1.541       .  S
C99         C105   1.535       .  S
C99         C103   1.546       .  S
C99         C476   1.517       .  S
C100        H107   1.086       .  S
C100        C101   1.365       .  D
C101        C102   1.534       .  S
C101        C419   1.445       .  S
C102        C106   1.530       .  S
C102        C104   1.537       .  S
C102        H108   1.112       .  S
C103        H109   1.086       .  S
C103        C104   1.371       .  D
C104        C418   1.454       .  S
C105        H110   1.087       .  S
C105        C106   1.358       .  D
C106        C414   1.434       .  S
N111        C116   1.356   1_655  A
N111        C115   1.350       .  A
N111        H143   1.039       .  S
N112        C119   1.349       .  A
N112        C120   1.353   1_565  A
N113        C118   1.351   1_655  A
N113        C117   1.356       .  A
N113        H144   1.039       .  S
N114        C121   1.352       .  A
N114        C122   1.348   1_565  A
C115        C123   1.389       .  A
C115        C131   1.414       .  A
C116        C132   1.414       .  A
C116        C124   1.386   1_455  A
C117        C125   1.386       .  A
C117        C134   1.415       .  A
C118        C133   1.414       .  A
C118        C126   1.388       .  A
C119        C131   1.412       .  A
C119        C127   1.389       .  A
C120        C134   1.411       .  A
C120        C128   1.385       .  A
C121        C129   1.386       .  A
C121        C132   1.409       .  A
C122        C130   1.388       .  A
C122        C133   1.409       .  A
C123        C124   1.379       .  A
C123        H135   1.082       .  S
C124        H136   1.082   1_655  S
C125        C126   1.377   1_655  A
C125        H137   1.082       .  S
C126        H138   1.082       .  S
C127        C128   1.373   1_565  A
C127        H139   1.082       .  S
C128        H140   1.082       .  S
C129        C130   1.372   1_565  A
C129        H141   1.082       .  S
C130        H142   1.082       .  S
C131        C455   1.442       .  S
C132        C427   1.457       .  S
C133        C411   1.442       .  S
C134        C439   1.459       .  S
C145        C146   1.539       .  S
C145        C151   1.546       .  S
C145        C149   1.539       .  S
C145        C472   1.515       .  S
C146        H153   1.087       .  S
C146        C147   1.363       .  D
C147        C148   1.534       .  S
C147        C403   1.443       .  S
C148        C152   1.534       .  S
C148        C150   1.532       .  S
C148        H154   1.112       .  S
C149        H155   1.086       .  S
C149        C150   1.364       .  D
C150        C402   1.439       .  S
C151        H156   1.086       .  S
C151        C152   1.366       .  D
C152        C407   1.449       .  S
C157        C158   1.538       .  S
C157        C163   1.534       .  S
C157        C161   1.543       .  S
C157        C479   1.512       .  S
C158        H165   1.087       .  S
C158        C159   1.362       .  D
C159        C160   1.532       .  S
C159        C387   1.440       .  S
C160        C164   1.534       .  S
C160        C162   1.538       .  S
C160        H166   1.112       .  S
C161        H167   1.086       .  S
C161        C162   1.370       .  D
C162        C391   1.449       .  S
C163        H168   1.087       .  S
C163        C164   1.359       .  D
C164        C398   1.436       .  S
N169        C174   1.354   1_556  A
N169        C173   1.357       .  A
N169        H201   1.035       .  S
N170        C177   1.345       .  A
N170        C178   1.346   1_655  A
N171        C176   1.348   1_556  A
N171        C175   1.352       .  A
N171        H202   1.040       .  S
N172        C179   1.348       .  A
N172        C180   1.350   1_655  A
C173        C181   1.389       .  A
C173        C189   1.422       .  A
C174        C190   1.418       .  A
C174        C182   1.387       .  A
C175        C183   1.391       .  A
C175        C192   1.414       .  A
C176        C191   1.408       .  A
C176        C184   1.382       .  A
C177        C189   1.413       .  A
C177        C185   1.389       .  A
C178        C192   1.410       .  A
C178        C186   1.386       .  A
C179        C187   1.389       .  A
C179        C190   1.414       .  A
C180        C188   1.383   1_455  A
C180        C191   1.414       .  A
C181        C182   1.375   1_556  A
C181        H193   1.082       .  S
C182        H194   1.082       .  S
C183        C184   1.376   1_556  A
C183        H195   1.082       .  S
C184        H196   1.082       .  S
C185        C186   1.379   1_655  A
C185        H197   1.082       .  S
C186        H198   1.082       .  S
C187        C188   1.376       .  A
C187        H199   1.082       .  S
C188        H200   1.080   1_655  S
C189        C454   1.451       .  S
C190        C399   1.449       .  S
C191        C306   1.519       .  S
C192        C426   1.446       .  S
C203        C204   1.545       .  S
C203        C209   1.547       .  S
C203        C207   1.535       .  S
C203        C488   1.527       .  S
C204        H211   1.086       .  S
C204        C205   1.369       .  D
C205        C206   1.537       .  S
C205        C379   1.452       .  S
C206        C210   1.536       .  S
C206        C208   1.530       .  S
C206        H212   1.112       .  S
C207        H213   1.087       .  S
C207        C208   1.363       .  D
C208        C378   1.439       .  S
C209        H214   1.086       .  S
C209        C210   1.370       .  D
C210        C383   1.453       .  S
N215        C220   1.352       .  A
N215        C219   1.356   1_545  A
N215        H247   1.037       .  S
N216        C223   1.352       .  A
N216        C224   1.350   1_655  A
N217        C222   1.355       .  A
N217        C221   1.351   1_545  A
N217        H248   1.039       .  S
N218        C225   1.350       .  A
N218        C226   1.355   1_655  A
C219        C227   1.386       .  A
C219        C235   1.416       .  A
C220        C236   1.416       .  A
C220        C228   1.389       .  A
C221        C229   1.388       .  A
C221        C238   1.411       .  A
C222        C237   1.412       .  A
C222        C230   1.386       .  A
C223        C235   1.412       .  A
C223        C231   1.386       .  A
C224        C238   1.410       .  A
C224        C232   1.387       .  A
C225        C233   1.389       .  A
C225        C236   1.416       .  A
C226        C234   1.385       .  A
C226        C237   1.413       .  A
C227        C228   1.377   1_565  A
C227        H239   1.082       .  S
C228        H240   1.082       .  S
C229        C230   1.375   1_565  A
C229        H241   1.082       .  S
C230        H242   1.082       .  S
C231        C232   1.375   1_655  A
C231        H243   1.082       .  S
C232        H244   1.082       .  S
C233        C234   1.376   1_655  A
C233        H245   1.082       .  S
C234        H246   1.082       .  S
C235        C410   1.458       .  S
C236        C371   1.447       .  S
C237        C386   1.461       .  S
C238        C395   1.444       .  S
N249        C254   1.356       .  A
N249        C253   1.356   1_554  A
N249        H281   1.038       .  S
N250        C257   1.353       .  A
N250        C258   1.353   1_565  A
N251        C256   1.357       .  A
N251        C255   1.357   1_554  A
N251        H282   1.037       .  S
N252        C259   1.353       .  A
N252        C260   1.353   1_565  A
C253        C261   1.387       .  A
C253        C269   1.418       .  A
C254        C270   1.418       .  A
C254        C262   1.387       .  A
C255        C263   1.387       .  A
C255        C272   1.420       .  A
C256        C271   1.421       .  A
C256        C264   1.387       .  A
C257        C269   1.414       .  A
C257        C265   1.386       .  A
C258        C272   1.415       .  A
C258        C266   1.387       .  A
C259        C267   1.387       .  A
C259        C270   1.415       .  A
C260        C268   1.387       .  A
C260        C271   1.416       .  A
C261        C262   1.375   1_556  A
C261        H273   1.082       .  S
C262        H274   1.082       .  S
C263        C264   1.377   1_556  A
C263        H275   1.082       .  S
C264        H276   1.082       .  S
C265        C266   1.373   1_565  A
C265        H277   1.082       .  S
C266        H278   1.082       .  S
C267        C268   1.373   1_565  A
C267        H279   1.082       .  S
C268        H280   1.082       .  S
C269        C434   1.458       .  S
C270        C394   1.458       .  S
C271        C382   1.461       .  S
C272        C415   1.462       .  S
N283        C288   1.353       .  A
N283        C287   1.356   1_556  A
N283        H315   1.038       .  S
N284        C291   1.340       .  A
N284        C292   1.342   1_655  A
N285        C290   1.346       .  A
N285        C289   1.346   1_556  A
N285        H316   1.043       .  S
N286        C293   1.347       .  A
N286        C294   1.351   1_655  A
C287        C295   1.384       .  A
C287        C303   1.416       .  A
C288        C304   1.421       .  A
C288        C296   1.392       .  A
C289        C297   1.380       .  A
C289        C306   1.404       .  A
C290        C305   1.413       .  A
C290        C298   1.392       .  A
C291        C303   1.404       .  A
C291        C299   1.390       .  A
C292        C306   1.397       .  A
C292        C300   1.381       .  A
C293        C301   1.389       .  A
C293        C304   1.417       .  A
C294        C302   1.385       .  A
C294        C305   1.415       .  A
C295        C296   1.377   1_554  A
C295        H307   1.082       .  S
C296        H308   1.082       .  S
C297        C298   1.389   1_554  A
C297        H309   1.082       .  S
C298        H310   1.082       .  S
C299        C300   1.386   1_655  A
C299        H311   1.082       .  S
C300        H312   1.082       .  S
C301        C302   1.379   1_655  A
C301        H313   1.082       .  S
C302        H314   1.082       .  S
C303        C367   1.445       .  S
C304        C443   1.446       .  S
C305        C422   1.450       .  S
C317        C318   1.539       .  S
C317        C323   1.540       .  S
C317        C321   1.538       .  S
C317        C484   1.509       .  S
C318        H325   1.086       .  S
C318        C319   1.363       .  D
C319        C320   1.532       .  S
C319        C370   1.438       .  S
C320        C324   1.533       .  S
C320        C322   1.535       .  S
C320        H326   1.112       .  S
C321        H327   1.086       .  S
C321        C322   1.364       .  D
C322        C363   1.443       .  S
C323        H328   1.086       .  S
C323        C324   1.361       .  D
C324        C374   1.439       .  S
N329        C334   1.353       .  A
N329        C333   1.353   1_554  A
N329        H361   1.033       .  S
N330        C337   1.354       .  A
N330        C338   1.353   1_545  A
N331        C336   1.353       .  A
N331        C335   1.352   1_554  A
N331        H362   1.035       .  S
N332        C339   1.352       .  A
N332        C340   1.352   1_545  A
C333        C341   1.388       .  A
C333        C349   1.416       .  A
C334        C350   1.417       .  A
C334        C342   1.388       .  A
C335        C343   1.388       .  A
C335        C352   1.415       .  A
C336        C351   1.414       .  A
C336        C344   1.387       .  A
C337        C349   1.416       .  A
C337        C345   1.387       .  A
C338        C352   1.415       .  A
C338        C346   1.386       .  A
C339        C347   1.387       .  A
C339        C350   1.415       .  A
C340        C348   1.386       .  A
C340        C351   1.413       .  A
C341        C342   1.377   1_556  A
C341        H353   1.082       .  S
C342        H354   1.082       .  S
C343        C344   1.376   1_556  A
C343        H355   1.082       .  S
C344        H356   1.082       .  S
C345        C346   1.372   1_545  A
C345        H357   1.082       .  S
C346        H358   1.082       .  S
C347        C348   1.372   1_545  A
C347        H359   1.082       .  S
C348        H360   1.082       .  S
C349        C438   1.455       .  S
C350        C366   1.452       .  S
C351        C406   1.451       .  S
C352        C450   1.452       .  S
C363        C364   1.206       .  T
C364        C365   1.413       .  S
C365        C366   1.206       .  T
C367        C368   1.204       .  T
C368        C369   1.409       .  S
C369        C370   1.204       .  T
C371        C372   1.204       .  T
C372        C373   1.409       .  S
C373        C374   1.204       .  T
C375        C376   1.202       .  T
C375        C390   1.407       .  S
C376        C377   1.407       .  S
C377        C378   1.203       .  T
C379        C380   1.212       .  T
C380        C381   1.422       .  S
C381        C382   1.212       .  T
C383        C384   1.213       .  T
C384        C385   1.424       .  S
C385        C386   1.213       .  T
C387        C388   1.204       .  T
C388        C389   1.409       .  S
C389        C390   1.203       .  T
C391        C392   1.210       .  T
C392        C393   1.419       .  S
C393        C394   1.211       .  T
C395        C396   1.203       .  T
C396        C397   1.406       .  S
C397        C398   1.202       .  T
C399        C400   1.205       .  T
C400        C401   1.410       .  S
C401        C402   1.204       .  T
C403        C404   1.206       .  T
C404        C405   1.413       .  S
C405        C406   1.207       .  T
C407        C408   1.210       .  T
C408        C409   1.420       .  S
C409        C410   1.211       .  T
C411        C412   1.201       .  T
C412        C413   1.404       .  S
C413        C414   1.201       .  T
C415        C416   1.213       .  T
C416        C417   1.424       .  S
C417        C418   1.213       .  T
C419        C420   1.208       .  T
C420        C421   1.415       .  S
C421        C422   1.208       .  T
C423        C424   1.203       .  T
C424        C425   1.409       .  S
C425        C426   1.204       .  T
C427        C428   1.211       .  T
C428        C429   1.420       .  S
C429        C430   1.210       .  T
C431        C432   1.210       .  T
C432        C433   1.419       .  S
C433        C434   1.210       .  T
C435        C436   1.208       .  T
C436        C437   1.416       .  S
C437        C438   1.209       .  T
C439        C440   1.211       .  T
C440        C441   1.421       .  S
C441        C442   1.211       .  T
C443        C444   1.204       .  T
C444        C445   1.408       .  S
C445        C446   1.203       .  T
C447        C448   1.207       .  T
C448        C449   1.414       .  S
C449        C450   1.207       .  T
C451        C452   1.206       .  T
C452        C453   1.413       .  S
C453        C454   1.207       .  T
C455        C456   1.201       .  T
C456        C457   1.404       .  S
C457        C458   1.201       .  T
C459        H461   1.087       .  S
C459        C460   1.347       .  D
C460        H462   1.087       .  S
C463        H465   1.087       .  S
C463        C464   1.339       .  D
C464        H466   1.087       .  S
C467        H469   1.087       .  S
C467        C468   1.342       .  D
C468        H470   1.087       .  S
C471        H473   1.087       .  S
C471        C472   1.342       .  D
C472        H474   1.088       .  S
C475        H477   1.087       .  S
C475        C476   1.342       .  D
C476        H478   1.087       .  S
C479        H481   1.087       .  S
C479        C480   1.343       .  D
C480        H482   1.087       .  S
C483        H485   1.087       .  S
C483        C484   1.342       .  D
C484        H486   1.087       .  S
C487        H489   1.087       .  S
C487        C488   1.350       .  D
C488        H490   1.087       .  S
