geometry optimzed in LAMMPS
_audit_creation_date              2020-12-01 
_audit_creation_method            'lammps2cif' 
_symmetry_space_group_name_H-M    'P1' 
_symmetry_Int_Tables_number       1 
_symmetry_cell_setting            triclinic 
loop_ 
_symmetry_equiv_pos_as_xyz 
  x,y,z 
_cell_length_a                    39.56559586 
_cell_length_b                    39.288409404205375 
_cell_length_c                    48.72511866307005 
_cell_angle_alpha                 89.90670245832095 
_cell_angle_beta                  89.8725846102264 
_cell_angle_gamma                 119.68110535330777 
loop_ 
_atom_site_label 
_atom_site_type_symbol 
_atom_site_fract_x 
_atom_site_fract_y 
_atom_site_fract_z 
_atom_site_charge 
O1          O  0.23500902  0.34636071  0.27310542    -0.85400
O2          O  0.16584392  0.28127394  0.28779756    -0.82400
C3          C  0.12997493  0.25683672  0.28887912     0.98100
O4          O  0.10701597  0.25842464  0.27138346    -0.82400
O5          O  0.10529321  0.32719582  0.28123040    -0.85100
C6          C  0.11828333  0.36362724  0.28325741     1.02600
O7          O  0.14718101  0.38753932  0.26895269    -0.77800
O8          O  0.21314213  0.38532364  0.28550809    -0.78000
C9          C  0.23774183  0.37402515  0.28781915     1.02600
O10         O  0.21629169  0.32645612  0.21658793    -0.85400
O11         O  0.15271101  0.25687596  0.23190009    -0.82400
C12         C  0.12748340  0.25216435  0.21427688     0.98100
O13         O  0.11411283  0.27545162  0.21347844    -0.82400
O14         O  0.10755570  0.34231095  0.22357002    -0.85100
C15         C  0.13253986  0.37133070  0.20972418     1.02600
O16         O  0.16820575  0.38386201  0.21312542    -0.77900
O17         O  0.23557868  0.38671366  0.22931404    -0.78000
C18         C  0.23890330  0.36271997  0.21373599     1.02600
Cr19       Cr  0.19039210  0.30476231  0.25220665     1.93700
Cr20       Cr  0.11241363  0.30287984  0.24747556     1.93200
Cr21       Cr  0.18894416  0.38172025  0.24934606     1.39100
O22         O  0.16374852  0.32986476  0.24979357    -1.23100
C23         C  0.99545442  0.49721685  0.10824463    -0.02500
C24         C  0.99189988  0.49604665  0.39218887    -0.02500
O25         O  0.35392295  0.24092709  0.72395309    -0.85400
O26         O  0.28410282  0.17340202  0.71488758    -0.82400
C27         C  0.25949882  0.13740578  0.71416920     0.98100
O28         O  0.26291575  0.11365679  0.72988082    -0.82400
O29         O  0.33069530  0.11318160  0.71442284    -0.85100
C30         C  0.36635395  0.12371713  0.71203881     1.02600
O31         O  0.39065722  0.14917495  0.72824370    -0.77800
O32         O  0.39046086  0.21579175  0.71203321    -0.78000
C33         C  0.37886658  0.23994967  0.70800911     1.02600
O34         O  0.34115764  0.22835581  0.78232246    -0.85400
O35         O  0.26882262  0.16205982  0.77293286    -0.82400
C36         C  0.26418752  0.13386891  0.78827425     0.98100
O37         O  0.28656552  0.11987262  0.78596010    -0.82400
O38         O  0.34830569  0.11119551  0.77170413    -0.85100
C39         C  0.37580881  0.13374956  0.78726505     1.02600
O40         O  0.39063105  0.17035734  0.78433910    -0.77900
O41         O  0.39898354  0.24225943  0.76777235    -0.78000
C42         C  0.37765342  0.24999670  0.78296618     1.02600
Cr43       Cr  0.31391249  0.19895524  0.74868068     1.93700
Cr44       Cr  0.30931407  0.11855483  0.75028314     1.93200
Cr45       Cr  0.38856489  0.19274621  0.74828336     1.39100
O46         O  0.33717414  0.17019977  0.74918661    -1.23100
C47         C  0.00703997  0.50685346  0.89447660    -0.02500
C48         C  0.00304948  0.49727135  0.60826359    -0.02500
C49         C  0.39585061  0.28617062  0.80023122     0.01300
C50         C  0.42335197  0.32257039  0.78847432     0.04200
C51         C  0.44106864  0.35685807  0.80449681    -0.11900
C52         C  0.43116879  0.35557339  0.83234383     0.23500
C53         C  0.40318749  0.31965174  0.84412830    -0.12500
C54         C  0.38562016  0.28508937  0.82819399     0.04900
C55         C  0.44877024  0.39249327  0.84880410     0.27300
C56         C  0.48179465  0.40317309  0.86471206    -0.13200
C57         C  0.49733968  0.43701390  0.88138965     0.05400
C58         C  0.48212153  0.46384299  0.88105272    -0.09100
C59         C  0.44568421  0.44930027  0.86635025     0.06200
C60         C  0.43103909  0.41561334  0.84946349    -0.13500
Br61       Br  0.38854749  0.31817657  0.88210515    -0.05600
Br62       Br  0.43471357  0.32700311  0.74977834     0.00100
Br63       Br  0.03562556  0.44057213  0.90715870     0.00500
Br64       Br  0.38563569  0.39999973  0.82655107    -0.03900
Br65       Br  0.34815966  0.23631309  0.84505269     0.00600
Br66       Br  0.47822530  0.40631563  0.78817478    -0.03200
Br67       Br  0.00615484  0.37087182  0.86284656    -0.04100
Br68       Br  0.40738995  0.46452445  0.87313242    -0.00100
C69         C  0.04856623  0.02180162  0.88142575     0.01300
C70         C  0.05274203  0.02215709  0.85168720     0.04200
C71         C  0.08968889  0.04002320  0.83889772    -0.11900
C72         C  0.12371913  0.05608412  0.85449638     0.23500
C73         C  0.12119000  0.05190959  0.88302516    -0.12500
C74         C  0.08461472  0.03442235  0.89672104     0.04900
C75         C  0.16235576  0.07632168  0.84036401     0.27300
C76         C  0.17535750  0.05415213  0.82565372    -0.13200
C77         C  0.20864551  0.07294824  0.80884698     0.05400
C78         C  0.23023787  0.11449834  0.80728862    -0.09100
C79         C  0.21779305  0.13666072  0.82285371     0.06200
C80         C  0.18446609  0.11762005  0.83970987    -0.13500
Br81       Br  0.16966520  0.06994418  0.90294034    -0.05600
Br82       Br  0.01193762  0.50370362  0.82614347     0.00100
Br83       Br  0.22112521  0.04069997  0.78565999     0.00500
Br84       Br  0.16945602  0.14833674  0.86220672    -0.03900
Br85       Br  0.08980648  0.02593386  0.93549978     0.00600
Br86       Br  0.09448083  0.04606559  0.79921256    -0.03200
Br87       Br  0.14651740  0.99758753  0.82805214    -0.04100
Br88       Br  0.24549106  0.19316313  0.82095327    -0.00100
C89         C  0.49093722  0.03722282  0.88525888     0.01300
C90         C  0.51000567  0.06704410  0.86434387     0.04200
C91         C  0.48871749  0.07985640  0.84862076    -0.11900
C92         C  0.45282415  0.07366066  0.85800826     0.23500
C93         C  0.43941195  0.05631757  0.88378433    -0.12500
C94         C  0.45831165  0.03868489  0.89785694     0.04900
C95         C  0.43072229  0.08788685  0.84145132     0.27300
C96         C  0.43497626  0.12507033  0.84637368    -0.13200
C97         C  0.41535015  0.13924667  0.82985710     0.05400
C98         C  0.39242236  0.11685943  0.80728551    -0.09100
C99         C  0.38730668  0.07859223  0.80316930     0.06200
C100        C  0.40667955  0.06466576  0.82006223    -0.13500
Br101      Br  0.39255787  0.05385374  0.89825067    -0.05600
Br102      Br  0.06546687  0.10353782  0.86211089     0.00100
Br103      Br  0.41896056  0.18855302  0.83984226     0.00500
Br104      Br  0.40192905  0.01408853  0.81299973    -0.03900
Br105      Br  0.43665762  0.51651505  0.93355315     0.00600
Br106      Br  0.01009387  0.10862973  0.81480190    -0.03200
Br107      Br  0.46925576  0.15713258  0.87529671    -0.04100
Br108      Br  0.35490215  0.04386817  0.77432341    -0.00100
C109        C  0.39641080  0.26897646  0.68545821     0.01300
C110        C  0.37270893  0.27724132  0.66820661     0.04200
C111        C  0.38982593  0.30853504  0.64940157    -0.11900
C112        C  0.43058786  0.33237699  0.64823893     0.23500
C113        C  0.45422912  0.32146038  0.66309966    -0.12500
C114        C  0.43733159  0.29005922  0.68183202     0.04900
C115        C  0.44754631  0.37252926  0.63652282     0.27300
C116        C  0.46729787  0.38301394  0.61132629    -0.13200
C117        C  0.48719784  0.42287846  0.60290340     0.05400
C118        C  0.48049756  0.45180451  0.61676049    -0.09100
C119        C  0.45100600  0.43566754  0.63797562     0.06200
C120        C  0.44195780  0.40022981  0.65068116    -0.13500
Br121      Br  0.50996086  0.35061405  0.65893055    -0.05600
Br122      Br  0.31677477  0.24643960  0.67042668     0.00100
Br123      Br  0.52712707  0.43531262  0.57551150     0.00500
Br124      Br  0.41914601  0.38883138  0.68710208    -0.03900
Br125      Br  0.47134558  0.27972745  0.70453181     0.00600
Br126      Br  0.35763397  0.32052605  0.62614956    -0.03200
Br127      Br  0.46790652  0.34262467  0.58913375    -0.04100
Br128      Br  0.40962357  0.44771908  0.64403828    -0.00100
C129        C  0.04546385  0.01973852  0.62130065     0.01300
C130        C  0.06581177  0.00228742  0.63523415     0.04200
C131        C  0.10444699  0.02559299  0.64476758    -0.11900
C132        C  0.12149214  0.06626158  0.64621837     0.23500
C133        C  0.10227056  0.08449213  0.63472023    -0.12500
C134        C  0.06648698  0.06232858  0.62084207     0.04900
C135        C  0.15756635  0.08896022  0.66283640     0.27300
C136        C  0.15423458  0.09158278  0.69145106    -0.13200
C137        C  0.18769212  0.10869933  0.70798218     0.05400
C138        C  0.22489895  0.12280516  0.69616477    -0.09100
C139        C  0.22843923  0.12156532  0.66742113     0.06200
C140        C  0.19484879  0.10506576  0.65075385    -0.13500
Br141      Br  0.12607925  0.14080688  0.63817999    -0.05600
Br142      Br  0.04393410  0.45024505  0.64892900     0.00100
Br143      Br  0.18215176  0.11332266  0.74686288     0.00500
Br144      Br  0.19960207  0.10370302  0.61147611    -0.03900
Br145      Br  0.05090799  0.09351493  0.59940547     0.00600
Br146      Br  0.13353500  0.50312155  0.66159707    -0.03200
Br147      Br  0.10346643  0.07085816  0.70811413    -0.04100
Br148      Br  0.27910116  0.14032967  0.65115681    -0.00100
C149        C  0.48029737  0.01782644  0.62209237     0.01300
C150        C  0.48155216  0.02381361  0.65162462     0.04200
C151        C  0.46131322  0.04090511  0.66430864    -0.11900
C152        C  0.43770197  0.05087938  0.64892702     0.23500
C153        C  0.43615395  0.04639456  0.62045275    -0.12500
C154        C  0.45933651  0.03339375  0.60678173     0.04900
C155        C  0.41701825  0.06945386  0.66256585     0.27300
C156        C  0.37846580  0.04666323  0.67218161    -0.13200
C157        C  0.36040034  0.06429789  0.68696223     0.05400
C158        C  0.38068633  0.10522129  0.69172286    -0.09100
C159        C  0.41760309  0.12821009  0.67926574     0.06200
C160        C  0.43619278  0.11037572  0.66569327    -0.13500
Br161      Br  0.40199329  0.05962680  0.60023278    -0.05600
Br162      Br  0.00583308  0.00485649  0.67730726     0.00100
Br163      Br  0.30842167  0.03163049  0.70107382     0.00500
Br164      Br  0.48861752  0.14196703  0.65191955    -0.03900
Br165      Br  0.46509788  0.04661988  0.56804152     0.00600
Br166      Br  0.46342455  0.04875117  0.70371108    -0.03200
Br167      Br  0.35067221  0.99112112  0.66538109    -0.04100
Br168      Br  0.44185278  0.18444977  0.67865341    -0.00100
C169        C  0.99149057  0.49316320  0.42535684     0.01300
C170        C  0.47386871  0.01022154  0.44340260     0.04200
C171        C  0.47755636  0.01212637  0.47232713    -0.11900
C172        C  0.99732827  0.49639370  0.48488084     0.23500
C173        C  0.01310587  0.47746136  0.46961214    -0.12500
C174        C  0.00754932  0.47266578  0.44083657     0.04900
C175        C  0.99936303  0.49694449  0.51566508     0.27300
C176        C  0.03366605  0.02206921  0.53022221    -0.13200
C177        C  0.03691899  0.01859709  0.55886041     0.05400
C178        C  0.00306959  0.49753233  0.57519161    -0.09100
C179        C  0.46769142  0.47215286  0.56011682     0.06200
C180        C  0.46721397  0.47020722  0.53110046    -0.13500
Br181      Br  0.04074532  0.45569119  0.48924433    -0.05600
Br182      Br  0.44314844  0.03220814  0.42978516     0.00100
Br183      Br  0.09029596  0.03554992  0.56934743     0.00500
Br184      Br  0.42172649  0.43103611  0.51171620    -0.03900
Br185      Br  0.01279081  0.42872912  0.42771378     0.00600
Br186      Br  0.45649444  0.03854123  0.49422886    -0.03200
Br187      Br  0.07727659  0.06053895  0.50880958    -0.04100
Br188      Br  0.41709330  0.44121269  0.57683261    -0.00100
C189        C  0.00519413  0.50409164  0.92718334     0.01300
C190        C  0.02401372  0.03987044  0.94325036     0.04200
C191        C  0.02513140  0.03834768  0.97219267    -0.11900
C192        C  0.00606972  0.50142518  0.98632048     0.22500
C193        C  0.48259706  0.46732207  0.97148255    -0.12500
C194        C  0.48038099  0.46837330  0.94257043     0.04900
C195        C  0.00371625  0.50048063  0.01681660     0.27300
C196        C  0.02048331  0.48265056  0.03212484    -0.13200
C197        C  0.01168789  0.47477676  0.06026350     0.05400
C198        C  0.99475957  0.49425903  0.07556294    -0.09100
C199        C  0.47749714  0.01271552  0.05926364     0.06200
C200        C  0.47953360  0.01362595  0.03033789    -0.13500
Br201      Br  0.45041051  0.41918089  0.99191733    -0.05600
Br202      Br  0.05249055  0.09181844  0.92795691     0.00100
Br203      Br  0.01485178  0.42964098  0.07282121     0.00500
Br204      Br  0.44890450  0.03004513  0.00873296    -0.03900
Br205      Br  0.43440997  0.42252486  0.92858692     0.00600
Br206      Br  0.05601363  0.08541234  0.99347921    -0.03200
Br207      Br  0.05387697  0.46679791  0.01365335    -0.04100
Br208      Br  0.44702918  0.03381603  0.07409015    -0.00100
C209        C  0.01027317  0.47109239  0.37868448     0.01300
C210        C  0.05218018  0.48685678  0.37949569     0.04200
C211        C  0.07068596  0.46993253  0.36434723    -0.11900
C212        C  0.04891938  0.43293424  0.35266841     0.23500
C213        C  0.00854360  0.41366745  0.35484744    -0.12500
C214        C  0.98929528  0.43378753  0.36418324     0.04900
C215        C  0.06768748  0.41551000  0.33539348     0.27300
C216        C  0.06798536  0.41961551  0.30666790    -0.13200
C217        C  0.08250211  0.40077018  0.28979268     0.05400
C218        C  0.09866683  0.37908202  0.30135898    -0.09100
C219        C  0.09686192  0.37353659  0.33006665     0.06200
C220        C  0.08150555  0.39180543  0.34704636    -0.13500
Br221      Br  0.97998407  0.35931265  0.34296207    -0.05600
Br222      Br  0.08689814  0.52909877  0.40305919     0.00100
Br223      Br  0.07543102  0.40075790  0.25081618     0.00500
Br224      Br  0.07839043  0.38374300  0.38618431    -0.03900
Br225      Br  0.43750600  0.40926501  0.34960164     0.00600
Br226      Br  0.12658556  0.49714855  0.35945056    -0.03200
Br227      Br  0.04748041  0.45045068  0.29030857    -0.04100
Br228      Br  0.11433013  0.34010935  0.34605378    -0.00100
C229        C  0.44789450  0.48205598  0.38291360     0.01300
C230        C  0.43673060  0.50559765  0.36607611     0.04200
C231        C  0.40124143  0.48829419  0.35191303    -0.11900
C232        C  0.37312753  0.44975204  0.35749379     0.23500
C233        C  0.37853165  0.42984432  0.37945006    -0.12500
C234        C  0.41522485  0.44586774  0.39262425     0.04900
C235        C  0.33805343  0.43056242  0.33993642     0.27300
C236        C  0.30205366  0.42521486  0.34938781    -0.13200
C237        C  0.26883394  0.40623655  0.33268162     0.05400
C238        C  0.27211032  0.39492505  0.30575065    -0.09100
C239        C  0.30913635  0.40394438  0.29553762     0.06200
C240        C  0.34162577  0.42052226  0.31275903    -0.13500
Br241      Br  0.33682533  0.37789260  0.38869459    -0.05600
Br242      Br  0.45955867  0.06095638  0.36670076     0.00100
Br243      Br  0.21910692  0.39492122  0.34730462     0.00500
Br244      Br  0.39150649  0.43132808  0.29821774    -0.03900
Br245      Br  0.41881968  0.41326645  0.42089042     0.00600
Br246      Br  0.39056225  0.01479425  0.32420426    -0.03200
Br247      Br  0.29891765  0.44587893  0.38462539    -0.04100
Br248      Br  0.31713370  0.39741997  0.25723271    -0.00100
C249        C  0.01943714  0.03889477  0.38101222     0.01300
C250        C  0.02439455  0.04346747  0.35138666     0.04200
C251        C  0.04532175  0.08081743  0.33889600    -0.11900
C252        C  0.05994796  0.11500073  0.35460529     0.23500
C253        C  0.05771175  0.11213209  0.38323181    -0.12500
C254        C  0.04012430  0.07510936  0.39662272     0.04900
C255        C  0.07969159  0.15421779  0.34079084     0.27300
C256        C  0.11822750  0.16985858  0.33133718    -0.13200
C257        C  0.13552847  0.20420395  0.31518325     0.05400
C258        C  0.11465918  0.22407156  0.30912265    -0.09100
C259        C  0.07725190  0.21006596  0.32064408     0.06200
C260        C  0.05984786  0.17528824  0.33623318    -0.13500
Br261      Br  0.08023745  0.16063323  0.40392568    -0.05600
Br262      Br  0.99894202  0.00049942  0.32557347     0.00100
Br263      Br  0.18632603  0.22094453  0.29951992     0.00500
Br264      Br  0.00881589  0.15725366  0.35135598    -0.03900
Br265      Br  0.55214545  0.07969934  0.43543255     0.00600
Br266      Br  0.05248467  0.08584398  0.29938149    -0.03200
Br267      Br  0.14693601  0.14339130  0.34033602    -0.04100
Br268      Br  0.04950638  0.23865811  0.31563592    -0.00100
C269        C  0.02164553  0.47993292  0.12101996     0.01300
C270        C  0.00411460  0.44394268  0.13694647     0.04200
C271        C  0.02604456  0.43576201  0.15547605    -0.11900
C272        C  0.06587304  0.45193800  0.15128092     0.23500
C273        C  0.08437056  0.48161602  0.13154022    -0.12500
C274        C  0.06329213  0.49668727  0.11712552     0.04900
C275        C  0.08626716  0.43273299  0.16425418     0.27300
C276        C  0.11513310  0.45246659  0.18421098    -0.13200
C277        C  0.13365570  0.43366653  0.19661832     0.05400
C278        C  0.11990364  0.39334074  0.19169673    -0.09100
C279        C  0.09088299  0.37360564  0.17184428     0.06200
C280        C  0.07556400  0.39375349  0.15719980    -0.13500
Br281      Br  0.13857991  0.49924968  0.12315457    -0.05600
Br282      Br  0.45451999  0.39773103  0.12891541     0.00100
Br283      Br  0.17527245  0.46272308  0.22233977     0.00500
Br284      Br  0.03926048  0.36743209  0.12774545    -0.03900
Br285      Br  0.09246361  0.53085436  0.08724593     0.00600
Br286      Br  0.00053029  0.39948389  0.18547932    -0.03200
Br287      Br  0.12676115  0.50396327  0.19628657    -0.04100
Br288      Br  0.07183476  0.31884715  0.16471565    -0.00100
C289        C  0.45377994  0.47299431  0.12200260     0.01300
C290        C  0.41818554  0.44839493  0.10725988     0.04200
C291        C  0.38187608  0.43251100  0.12070424    -0.11900
C292        C  0.37977278  0.43474577  0.14923806     0.23500
C293        C  0.41385119  0.45365655  0.16478261    -0.12500
C294        C  0.45048825  0.47303769  0.15174786     0.04900
C295        C  0.34146753  0.41442158  0.16326486     0.27300
C296        C  0.31944381  0.43329913  0.16660155    -0.13200
C297        C  0.28405751  0.41467646  0.18102471     0.05400
C298        C  0.27152854  0.37788974  0.19371641    -0.09100
C299        C  0.29307799  0.35828817  0.18937733     0.06200
C300        C  0.32741128  0.37626487  0.17357648    -0.13500
Br301      Br  0.40966781  0.45452705  0.20438825    -0.05600
Br302      Br  0.41526222  0.42500782  0.07165162     0.00100
Br303      Br  0.25252136  0.43966805  0.18238377     0.00500
Br304      Br  0.35601509  0.34914462  0.16635341    -0.03900
Br305      Br  0.49648124  0.00056024  0.17622974     0.00600
Br306      Br  0.33375361  0.40530171  0.10027670    -0.03200
Br307      Br  0.33802288  0.48511247  0.15186253    -0.04100
Br308      Br  0.27862815  0.30864577  0.20678376    -0.00100
C309        C  0.11218712  0.21741576  0.19609182     0.01300
C310        C  0.10125199  0.18011979  0.20743479     0.04200
C311        C  0.08732657  0.14705584  0.19043431    -0.11900
C312        C  0.08130604  0.15026598  0.16234026     0.23500
C313        C  0.09175737  0.18723342  0.15094765    -0.12500
C314        C  0.10879722  0.22093996  0.16754473     0.04900
C315        C  0.05803002  0.11414479  0.14608853     0.27300
C316        C  0.07500261  0.10263303  0.12555846    -0.13200
C317        C  0.05110277  0.07152952  0.10818087     0.05400
C318        C  0.01328734  0.04272934  0.11687620    -0.09100
C319        C  0.99453911  0.05898493  0.13417334     0.06200
C320        C  0.01747193  0.09411220  0.14882960    -0.13500
Br321      Br  0.07995077  0.19120795  0.11305643    -0.05600
Br322      Br  0.10147208  0.17273620  0.24656251     0.00100
Br323      Br  0.05971406  0.08696771  0.07002211     0.00500
Br324      Br  0.49389836  0.11609177  0.17287847    -0.03900
Br325      Br  0.12925909  0.27183165  0.15078523     0.00600
Br326      Br  0.07412327  0.09660935  0.20588184    -0.03200
Br327      Br  0.13004667  0.13270223  0.11827484    -0.04100
Br328      Br  0.43906170  0.04017695  0.13801909    -0.00100
O329        O  0.23566984  0.84652284  0.27358288    -0.85400
O330        O  0.16652756  0.78172569  0.28780696    -0.82400
C331        C  0.13066754  0.75744976  0.28891604     0.98100
O332        O  0.10771233  0.75907442  0.27145264    -0.82400
O333        O  0.10619099  0.82766388  0.28187586    -0.85100
C334        C  0.11927163  0.86405212  0.28423135     1.02600
O335        O  0.14830622  0.88818505  0.27013557    -0.77800
O336        O  0.21423098  0.88565564  0.28629173    -0.78000
C337        C  0.23859936  0.87405186  0.28854089     1.02600
O338        O  0.21730807  0.82760517  0.21696321    -0.85400
O339        O  0.15326711  0.75772471  0.23165766    -0.82400
C340        C  0.12790222  0.75318599  0.21416051     0.98100
O341        O  0.11478620  0.77669720  0.21359646    -0.82400
O342        O  0.10859213  0.84356413  0.22427622    -0.85100
C343        C  0.13358542  0.87292269  0.21071444     1.02600
O344        O  0.16929324  0.88566305  0.21418499    -0.77900
O345        O  0.23670288  0.88784051  0.23000777    -0.78000
C346        C  0.24020005  0.86387833  0.21448358     1.02600
Cr347      Cr  0.19110416  0.80541299  0.25234968     1.93700
Cr348      Cr  0.11328949  0.80382308  0.24785791     1.93200
Cr349      Cr  0.19002916  0.88265093  0.25022345     1.39100
O350        O  0.16465789  0.83073162  0.25018942    -1.23100
C351        C  0.99611684  0.99734462  0.10822038    -0.02500
C352        C  0.99209873  0.99571340  0.39347446    -0.02500
O353        O  0.35470392  0.74038495  0.72391299    -0.85400
O354        O  0.28470879  0.67304307  0.71558431    -0.82400
C355        C  0.26005951  0.63706953  0.71493585     0.98100
O356        O  0.26361640  0.61332870  0.73059171    -0.82400
O357        O  0.33102276  0.61241728  0.71470864    -0.85100
C358        C  0.36664129  0.62300642  0.71191391     1.02600
O359        O  0.39135673  0.64854510  0.72788546    -0.77800
O360        O  0.39098144  0.71504634  0.71176988    -0.78000
C361        C  0.37914651  0.73901244  0.70768869     1.02600
O362        O  0.34326640  0.72857881  0.78240991    -0.85400
O363        O  0.27054604  0.66234470  0.77378688    -0.82400
C364        C  0.26600799  0.63418576  0.78912139     0.98100
O365        O  0.28817605  0.61997373  0.78657097    -0.82400
O366        O  0.34962183  0.61097274  0.77184465    -0.85100
C367        C  0.37697844  0.63364401  0.78757588     1.02600
O368        O  0.39214699  0.67015695  0.78422834    -0.77900
O369        O  0.40076020  0.74210519  0.76738437    -0.78000
C370        C  0.37980182  0.75007632  0.78277881     1.02600
Cr371      Cr  0.31521688  0.69883070  0.74907827     1.93700
Cr372      Cr  0.31032696  0.61826948  0.75070586     1.93200
Cr373      Cr  0.38970194  0.69230210  0.74804681     1.39100
O374        O  0.33832153  0.66991481  0.74935716    -1.23100
C375        C  0.00574180  0.00687875  0.89422070    -0.02500
C376        C  0.00204393  0.99623846  0.60887649    -0.02500
C377        C  0.39840775  0.78616920  0.80014742     0.01300
C378        C  0.42650950  0.82254082  0.78865074     0.04200
C379        C  0.44408874  0.85673213  0.80481982    -0.11900
C380        C  0.43297093  0.85551059  0.83238471     0.23500
C381        C  0.40468868  0.81955715  0.84393682    -0.12500
C382        C  0.38781915  0.78497969  0.82803131     0.04900
C383        C  0.44968452  0.89245153  0.84881040     0.27300
C384        C  0.48215965  0.90342861  0.86539608    -0.13200
C385        C  0.49660318  0.93705853  0.88219382     0.05400
C386        C  0.48111815  0.96361779  0.88113210    -0.09100
C387        C  0.44509581  0.94869076  0.86586372     0.06200
C388        C  0.43148166  0.91516377  0.84889421    -0.13500
Br389      Br  0.38865991  0.81800564  0.88156462    -0.05600
Br390      Br  0.43899710  0.82712768  0.75012146     0.00100
Br391      Br  0.03349396  0.94062893  0.90923739     0.00500
Br392      Br  0.38735088  0.89968616  0.82470797    -0.03900
Br393      Br  0.35120429  0.73588105  0.84493642     0.00600
Br394      Br  0.48298062  0.90592806  0.78915771    -0.03200
Br395      Br  0.00752574  0.87206142  0.86422006    -0.04100
Br396      Br  0.40645289  0.96381339  0.87132742    -0.00100
C397        C  0.05004512  0.52197755  0.88188975     0.01300
C398        C  0.05463938  0.52285797  0.85219341     0.04200
C399        C  0.09176296  0.54140640  0.83965580    -0.11900
C400        C  0.12560844  0.55720655  0.85544207     0.23500
C401        C  0.12273535  0.55266803  0.88394925    -0.12500
C402        C  0.08594964  0.53452315  0.89738159     0.04900
C403        C  0.16437817  0.57724092  0.84146497     0.27300
C404        C  0.17711575  0.55489014  0.82668312    -0.13200
C405        C  0.21035048  0.57349988  0.80980760     0.05400
C406        C  0.23229246  0.61503252  0.80836309    -0.09100
C407        C  0.22023352  0.63737047  0.82410396     0.06200
C408        C  0.18669793  0.61851570  0.84079557    -0.13500
Br409      Br  0.17098782  0.57117324  0.90424606    -0.05600
Br410      Br  0.00980571  0.00374824  0.82586656     0.00100
Br411      Br  0.22220566  0.54108829  0.78629309     0.00500
Br412      Br  0.17125639  0.64940490  0.86270878    -0.03900
Br413      Br  0.09064656  0.52422142  0.93590585     0.00600
Br414      Br  0.09706558  0.54897355  0.80010823    -0.03200
Br415      Br  0.14776389  0.49832383  0.82883034    -0.04100
Br416      Br  0.24882703  0.69387237  0.82270153    -0.00100
C417        C  0.49246074  0.53747027  0.88568869     0.01300
C418        C  0.51125376  0.56674948  0.86447225     0.04200
C419        C  0.48983362  0.57935618  0.84872472    -0.11900
C420        C  0.45462528  0.57442078  0.85864950     0.23500
C421        C  0.44198981  0.55807209  0.88481021    -0.12500
C422        C  0.46047439  0.53976572  0.89862997     0.04900
C423        C  0.43230398  0.58854675  0.84214664     0.27300
C424        C  0.43726333  0.62615023  0.84641988    -0.13200
C425        C  0.41701455  0.63988054  0.83010713     0.05400
C426        C  0.39297247  0.61670248  0.80815998    -0.09100
C427        C  0.38637770  0.57774945  0.80525024     0.06200
C428        C  0.40659294  0.56436096  0.82177117    -0.13500
Br429      Br  0.39687955  0.55816800  0.90030179    -0.05600
Br430      Br  0.06651227  0.60406524  0.86283159     0.00100
Br431      Br  0.42030920  0.68905375  0.83996478     0.00500
Br432      Br  0.40060798  0.51314473  0.81549681    -0.03900
Br433      Br  0.43457885  0.01574683  0.93285736     0.00600
Br434      Br  0.01051735  0.60655367  0.81433926    -0.03200
Br435      Br  0.47330637  0.65940883  0.87413197    -0.04100
Br436      Br  0.34956290  0.54067044  0.77927334    -0.00100
C437        C  0.39585401  0.76740863  0.68471504     0.01300
C438        C  0.37152586  0.77504410  0.66763869     0.04200
C439        C  0.38796760  0.80603504  0.64854883    -0.11900
C440        C  0.42865804  0.83035639  0.64709842     0.23500
C441        C  0.45286008  0.81996084  0.66174436    -0.12500
C442        C  0.43664452  0.78868456  0.68058000     0.04900
C443        C  0.44508984  0.87058518  0.63559813     0.27300
C444        C  0.46545717  0.88174294  0.61067447    -0.13200
C445        C  0.48606122  0.92187592  0.60300745     0.05400
C446        C  0.47932544  0.95061746  0.61711144    -0.09100
C447        C  0.44914327  0.93398261  0.63789031     0.06200
C448        C  0.43935057  0.89798063  0.65004343    -0.13500
Br449      Br  0.50849893  0.84995120  0.65738443    -0.05600
Br450      Br  0.31567990  0.74398118  0.67059765     0.00100
Br451      Br  0.52674662  0.93467139  0.57618955     0.00500
Br452      Br  0.41547847  0.88546519  0.68613428    -0.03900
Br453      Br  0.47144472  0.77877379  0.70270283     0.00600
Br454      Br  0.35494548  0.81707122  0.62545423    -0.03200
Br455      Br  0.46567654  0.84181645  0.58770169    -0.04100
Br456      Br  0.40816076  0.94663627  0.64418657    -0.00100
C457        C  0.04644704  0.52072507  0.62091199     0.01300
C458        C  0.06635679  0.50326317  0.63552990     0.04200
C459        C  0.10443320  0.52657792  0.64609811    -0.11900
C460        C  0.12156596  0.56726806  0.64726959     0.23500
C461        C  0.10286666  0.58549546  0.63492899    -0.12500
C462        C  0.06744990  0.56331579  0.62056855     0.04900
C463        C  0.15770900  0.59009403  0.66387851     0.27300
C464        C  0.15464125  0.59262851  0.69254706    -0.13200
C465        C  0.18822112  0.60904261  0.70900812     0.05400
C466        C  0.22527693  0.62262129  0.69706523    -0.09100
C467        C  0.22856433  0.62159134  0.66827554     0.06200
C468        C  0.19488618  0.60574834  0.65170556    -0.13500
Br469      Br  0.12674375  0.64183024  0.63812062    -0.05600
Br470      Br  0.04356035  0.94940598  0.64881283     0.00100
Br471      Br  0.18314480  0.61345165  0.74797965     0.00500
Br472      Br  0.19932488  0.60460202  0.61238218    -0.03900
Br473      Br  0.05184160  0.59444459  0.59904311     0.00600
Br474      Br  0.13459487  0.00214124  0.65813915    -0.03200
Br475      Br  0.10409044  0.57270980  0.70937363    -0.04100
Br476      Br  0.27895204  0.63968923  0.65174844    -0.00100
C477        C  0.48117004  0.51889746  0.62125211     0.01300
C478        C  0.48268200  0.52567957  0.65070598     0.04200
C479        C  0.46251846  0.54307427  0.66306120    -0.11900
C480        C  0.43804233  0.55173917  0.64756743     0.23500
C481        C  0.43598880  0.54619106  0.61920138    -0.12500
C482        C  0.45975657  0.53376284  0.60573282     0.04900
C483        C  0.41669816  0.56973376  0.66101028     0.27300
C484        C  0.37940868  0.54618729  0.67251572    -0.13200
C485        C  0.36158867  0.56333712  0.68808051     0.05400
C486        C  0.38039968  0.60449743  0.69125815    -0.09100
C487        C  0.41541860  0.62797676  0.67669706     0.06200
C488        C  0.43418127  0.61075533  0.66255996    -0.13500
Br489      Br  0.40033580  0.55713146  0.59883301    -0.05600
Br490      Br  0.00721197  0.50758054  0.67683304     0.00100
Br491      Br  0.31233599  0.52983070  0.70577450     0.00500
Br492      Br  0.48446750  0.64335998  0.64577628    -0.03900
Br493      Br  0.46583839  0.54724031  0.56704066     0.00600
Br494      Br  0.46613130  0.55334434  0.70219678    -0.03200
Br495      Br  0.35284843  0.49039701  0.66695925    -0.04100
Br496      Br  0.43642078  0.68370189  0.67408465    -0.00100
C497        C  0.99230049  0.99350078  0.42650251     0.01300
C498        C  0.47205428  0.50874832  0.44238484     0.04200
C499        C  0.47596428  0.51090908  0.47135303    -0.11900
C500        C  0.99772916  0.99632364  0.48584361     0.23500
C501        C  0.01276720  0.97663548  0.47069638    -0.12500
C502        C  0.00741122  0.97213411  0.44194320     0.04900
C503        C  0.99938483  0.99658253  0.51650483     0.27300
C504        C  0.03373751  0.52265631  0.52929297    -0.13200
C505        C  0.03732288  0.51944123  0.55797961     0.05400
C506        C  0.00237281  0.99683204  0.57587548    -0.09100
C507        C  0.46710019  0.97172319  0.56065196     0.06200
C508        C  0.46698216  0.96987703  0.53168073    -0.13500
Br509      Br  0.03884141  0.95329638  0.49047870    -0.05600
Br510      Br  0.43937318  0.52861820  0.42902397     0.00100
Br511      Br  0.09081232  0.53726058  0.56849527     0.00500
Br512      Br  0.42172292  0.93089879  0.51200070    -0.03900
Br513      Br  0.01090967  0.92721785  0.42884044     0.00600
Br514      Br  0.45352703  0.53600060  0.49329078    -0.03200
Br515      Br  0.07694899  0.56141204  0.50776169    -0.04100
Br516      Br  0.41623957  0.94111895  0.57705207    -0.00100
C517        C  0.00398257  0.00462720  0.92695886     0.01300
C518        C  0.02554333  0.53908146  0.94367540     0.04200
C519        C  0.02734738  0.53707295  0.97253573    -0.11900
C520        C  0.00462975  0.00267903  0.98612574     0.22500
C521        C  0.48160332  0.96832050  0.97142104    -0.12500
C522        C  0.47920081  0.96909678  0.94252438     0.04900
C523        C  0.00296935  0.00170432  0.01665473     0.27300
C524        C  0.02048330  0.98423357  0.03154419    -0.13200
C525        C  0.01225308  0.97604034  0.05972609     0.05400
C526        C  0.99527052  0.99505214  0.07549997    -0.09100
C527        C  0.47720121  0.51166339  0.05888856     0.06200
C528        C  0.48025924  0.51283314  0.03000806    -0.13500
Br529      Br  0.45006726  0.92016184  0.99199079    -0.05600
Br530      Br  0.05312386  0.59135222  0.92881587     0.00100
Br531      Br  0.01658793  0.93134388  0.07175107     0.00500
Br532      Br  0.45131800  0.53062342  0.00780790    -0.03900
Br533      Br  0.43309129  0.92315892  0.92872122     0.00600
Br534      Br  0.06070100  0.58327302  0.99387329    -0.03200
Br535      Br  0.05395608  0.96910354  0.01238132    -0.04100
Br536      Br  0.44571349  0.53199799  0.07309853    -0.00100
C537        C  0.01041079  0.97056610  0.38008057     0.01300
C538        C  0.05239324  0.98688436  0.38022379     0.04200
C539        C  0.07095110  0.97074225  0.36431673    -0.11900
C540        C  0.04942964  0.93368773  0.35271610     0.23500
C541        C  0.00913678  0.91359019  0.35570360    -0.12500
C542        C  0.98942974  0.93268949  0.36626264     0.04900
C543        C  0.06840824  0.91629595  0.33561189     0.27300
C544        C  0.06659655  0.91789565  0.30680708    -0.13200
C545        C  0.08110014  0.89869421  0.29029029     0.05400
C546        C  0.09931799  0.87921627  0.30221098    -0.09100
C547        C  0.09932685  0.87579107  0.33104069     0.06200
C548        C  0.08417788  0.89455444  0.34771870    -0.13500
Br549      Br  0.98144495  0.85907099  0.34393199    -0.05600
Br550      Br  0.08727374  0.02889606  0.40383621     0.00100
Br551      Br  0.07119047  0.89484077  0.25152100     0.00500
Br552      Br  0.08399309  0.88978680  0.38709798    -0.03900
Br553      Br  0.43546383  0.90372418  0.35698750     0.00600
Br554      Br  0.12657183  0.99933805  0.35804063    -0.03200
Br555      Br  0.04319629  0.94568061  0.28987593    -0.04100
Br556      Br  0.11823431  0.84390676  0.34758173    -0.00100
C557        C  0.44787696  0.98174029  0.38455005     0.01300
C558        C  0.43694250  0.00451457  0.36676244     0.04200
C559        C  0.40161869  0.98661473  0.35246561    -0.11900
C560        C  0.37318856  0.94863748  0.35911282     0.23500
C561        C  0.37818579  0.93007701  0.38204263    -0.12500
C562        C  0.41475595  0.94676249  0.39546107     0.04900
C563        C  0.33809356  0.92877776  0.34172760     0.27300
C564        C  0.30283846  0.92619531  0.35014689    -0.13200
C565        C  0.26985022  0.90779168  0.33317139     0.05400
C566        C  0.27276277  0.89421522  0.30688113    -0.09100
C567        C  0.30936834  0.90037314  0.29769529     0.06200
C568        C  0.34132277  0.91603564  0.31539619    -0.13500
Br569      Br  0.33617230  0.87869958  0.39217906    -0.05600
Br570      Br  0.45976152  0.56214050  0.36698384     0.00100
Br571      Br  0.22114517  0.90103859  0.34659735     0.00500
Br572      Br  0.39029341  0.92194126  0.30271201    -0.03900
Br573      Br  0.41696637  0.91641108  0.42601086     0.00600
Br574      Br  0.38944163  0.51796387  0.32530117    -0.03200
Br575      Br  0.30060203  0.94984729  0.38431770    -0.04100
Br576      Br  0.31816259  0.89209731  0.25993464    -0.00100
C577        C  0.01933408  0.53938679  0.38006974     0.01300
C578        C  0.02416459  0.54453050  0.35045774     0.04200
C579        C  0.04452502  0.58206955  0.33824664    -0.11900
C580        C  0.06014028  0.61587903  0.35433696     0.23500
C581        C  0.05851499  0.61253941  0.38293513    -0.12500
C582        C  0.04010786  0.57527440  0.39600640     0.04900
C583        C  0.08026351  0.65517959  0.34081364     0.27300
C584        C  0.11827207  0.66982777  0.33053313    -0.13200
C585        C  0.13579703  0.70431934  0.31459298     0.05400
C586        C  0.11542051  0.72484803  0.30917028    -0.09100
C587        C  0.07849126  0.71161706  0.32125421     0.06200
C588        C  0.06096826  0.67689888  0.33686796    -0.13500
Br589      Br  0.08284713  0.66076216  0.40397380    -0.05600
Br590      Br  0.99945051  0.50225490  0.32420057     0.00100
Br591      Br  0.18615761  0.72045204  0.29835293     0.00500
Br592      Br  0.01023656  0.65936103  0.35240869    -0.03900
Br593      Br  0.55049283  0.57894035  0.43502195     0.00600
Br594      Br  0.04922859  0.58804904  0.29859001    -0.03200
Br595      Br  0.14555813  0.64129824  0.33752324    -0.04100
Br596      Br  0.05162191  0.74117079  0.31689390    -0.00100
C597        C  0.02210599  0.97967952  0.12074236     0.01300
C598        C  0.00430155  0.94328824  0.13618775     0.04200
C599        C  0.02572105  0.93490337  0.15507409    -0.11900
C600        C  0.06590257  0.95232675  0.15208050     0.23500
C601        C  0.08484066  0.98235565  0.13265196    -0.12500
C602        C  0.06385701  0.99679129  0.11746118     0.04900
C603        C  0.08644063  0.93358703  0.16544124     0.27300
C604        C  0.11391973  0.95301069  0.18629227    -0.13200
C605        C  0.13279100  0.93463468  0.19881026     0.05400
C606        C  0.12078258  0.89494498  0.19288273    -0.09100
C607        C  0.09325922  0.87561010  0.17207228     0.06200
C608        C  0.07764267  0.89548360  0.15747169    -0.13500
Br609      Br  0.13959533  0.00108684  0.12559208    -0.05600
Br610      Br  0.45502458  0.89734623  0.12717001     0.00100
Br611      Br  0.17280457  0.96328295  0.22565908     0.00500
Br612      Br  0.04376238  0.87012348  0.12664849    -0.03900
Br613      Br  0.09329978  0.02991943  0.08720455     0.00600
Br614      Br  0.99918494  0.89670946  0.18389759    -0.03200
Br615      Br  0.12350954  0.00355428  0.19904653    -0.04100
Br616      Br  0.07679841  0.82184188  0.16346483    -0.00100
C617        C  0.45458039  0.97319332  0.12213544     0.01300
C618        C  0.41884082  0.94854969  0.10755746     0.04200
C619        C  0.38271531  0.93197238  0.12133703    -0.11900
C620        C  0.38098955  0.93466694  0.14986905     0.23500
C621        C  0.41522834  0.95424864  0.16516778    -0.12500
C622        C  0.45169359  0.97320715  0.15190798     0.04900
C623        C  0.34289518  0.91462450  0.16416894     0.27300
C624        C  0.32012237  0.93288656  0.16624519    -0.13200
C625        C  0.28505366  0.91481285  0.18107621     0.05400
C626        C  0.27321779  0.87892497  0.19487140    -0.09100
C627        C  0.29543285  0.85980938  0.19174856     0.06200
C628        C  0.32981386  0.87745470  0.17600868    -0.13500
Br629      Br  0.41146104  0.95731109  0.20468354    -0.05600
Br630      Br  0.41567406  0.92615160  0.07152346     0.00100
Br631      Br  0.25291978  0.93915734  0.18149113     0.00500
Br632      Br  0.35971854  0.85119126  0.17090716    -0.03900
Br633      Br  0.49492139  0.50054304  0.17633316     0.00600
Br634      Br  0.33431108  0.90331094  0.10138365    -0.03200
Br635      Br  0.33715014  0.98298366  0.14896221    -0.04100
Br636      Br  0.28165351  0.81133752  0.21073894    -0.00100
C637        C  0.11197398  0.71831188  0.19590717     0.01300
C638        C  0.10053758  0.68085958  0.20716344     0.04200
C639        C  0.08614991  0.64774814  0.19011991    -0.11900
C640        C  0.07956517  0.65090700  0.16210962     0.23500
C641        C  0.09014570  0.68800938  0.15084681    -0.12500
C642        C  0.10822222  0.72179690  0.16739015     0.04900
C643        C  0.05645986  0.61465956  0.14574943     0.27300
C644        C  0.07343233  0.60383954  0.12474864    -0.13200
C645        C  0.04976269  0.57212463  0.10766329     0.05400
C646        C  0.01228644  0.54277028  0.11661826    -0.09100
C647        C  0.99334419  0.55863071  0.13402824     0.06200
C648        C  0.01597587  0.59350584  0.14904647    -0.13500
Br649      Br  0.07740260  0.69224062  0.11323681    -0.05600
Br650      Br  0.10075279  0.67339949  0.24625227     0.00100
Br651      Br  0.05787688  0.58680557  0.06936362     0.00500
Br652      Br  0.49189118  0.61327563  0.17449894    -0.03900
Br653      Br  0.13014012  0.77272562  0.15052051     0.00600
Br654      Br  0.07347617  0.59736217  0.20537771    -0.03200
Br655      Br  0.12816402  0.63519519  0.11671526    -0.04100
Br656      Br  0.43786223  0.53996147  0.13696617    -0.00100
O657        O  0.73501151  0.34636456  0.27310917    -0.85400
O658        O  0.66584540  0.28127739  0.28780036    -0.82400
C659        C  0.62997655  0.25683883  0.28887997     0.98100
O660        O  0.60701904  0.25842611  0.27138279    -0.82400
O661        O  0.60529192  0.32719466  0.28122967    -0.85100
C662        C  0.61828154  0.36362582  0.28325803     1.02600
O663        O  0.64718097  0.38753963  0.26895538    -0.77800
O664        O  0.71314324  0.38532622  0.28551155    -0.78000
C665        C  0.73774400  0.37402905  0.28782247     1.02600
O666        O  0.71629659  0.32646030  0.21659193    -0.85400
O667        O  0.65271691  0.25687967  0.23190281    -0.82400
C668        C  0.62749142  0.25216826  0.21427802     0.98100
O669        O  0.61412086  0.27545559  0.21347811    -0.82400
O670        O  0.60755897  0.34231254  0.22357008    -0.85100
C671        C  0.63254358  0.37133430  0.20972624     1.02600
O672        O  0.66820935  0.38386667  0.21312856    -0.77900
O673        O  0.73558150  0.38671774  0.22931764    -0.78000
C674        C  0.73890691  0.36272430  0.21373972     1.02600
Cr675      Cr  0.69039575  0.30476607  0.25220998     1.93700
Cr676      Cr  0.61241691  0.30288138  0.24747525     1.93200
Cr677      Cr  0.68894613  0.38172317  0.24934925     1.39100
O678        O  0.66375149  0.32986768  0.24979565    -1.23100
C679        C  0.49545462  0.49721203  0.10824417    -0.02500
C680        C  0.49189421  0.49604194  0.39218954    -0.02500
O681        O  0.85392325  0.24092913  0.72395038    -0.85400
O682        O  0.78410354  0.17340234  0.71488716    -0.82400
C683        C  0.75949910  0.13740605  0.71417094     0.98100
O684        O  0.76291571  0.11365895  0.72988467    -0.82400
O685        O  0.83069123  0.11317859  0.71442453    -0.85100
C686        C  0.86634985  0.12371548  0.71203719     1.02600
O687        O  0.89065550  0.14917592  0.72823940    -0.77800
O688        O  0.89045709  0.21579076  0.71202784    -0.78000
C689        C  0.87886440  0.23995002  0.70800495     1.02600
O690        O  0.84116218  0.22836085  0.78231949    -0.85400
O691        O  0.76882571  0.16206482  0.77293271    -0.82400
C692        C  0.76419281  0.13387671  0.78827628     0.98100
O693        O  0.78657187  0.11988175  0.78596331    -0.82400
O694        O  0.84830735  0.11119891  0.77170548    -0.85100
C695        C  0.87581958  0.13375536  0.78725899     1.02600
O696        O  0.89064138  0.17036334  0.78433285    -0.77900
O697        O  0.89898708  0.24226334  0.76776700    -0.78000
C698        C  0.87765818  0.25000161  0.78296154     1.02600
Cr699      Cr  0.81391457  0.19895824  0.74867918     1.93700
Cr700      Cr  0.80931509  0.11855775  0.75028551     1.93200
Cr701      Cr  0.88856682  0.19274896  0.74827832     1.39100
O702        O  0.83717614  0.17020255  0.74918564    -1.23100
C703        C  0.50703303  0.50685316  0.89447649    -0.02500
C704        C  0.50304951  0.49726947  0.60826467    -0.02500
C705        C  0.89585661  0.28617650  0.80022553     0.01300
C706        C  0.92335502  0.32257617  0.78846683     0.04200
C707        C  0.94107269  0.35686488  0.80448829    -0.11900
C708        C  0.93117812  0.35558077  0.83233642     0.23500
C709        C  0.90319932  0.31965929  0.84412257    -0.12500
C710        C  0.88562957  0.28509641  0.82818894     0.04900
C711        C  0.94878132  0.39250071  0.84879657     0.27300
C712        C  0.98180629  0.40317953  0.86470370    -0.13200
C713        C  0.99734981  0.43701732  0.88138426     0.05400
C714        C  0.98212961  0.46384466  0.88105110    -0.09100
C715        C  0.94569187  0.44930262  0.86634940     0.06200
C716        C  0.93104857  0.41561920  0.84945934    -0.13500
Br717      Br  0.88856551  0.31818534  0.88210084    -0.05600
Br718      Br  0.93471025  0.32700696  0.74976993     0.00100
Br719      Br  0.53561598  0.44057153  0.90716468     0.00500
Br720      Br  0.88564524  0.40000823  0.82654740    -0.03900
Br721      Br  0.84816909  0.23632131  0.84504919     0.00600
Br722      Br  0.97822270  0.40632296  0.78816331    -0.03200
Br723      Br  0.50614073  0.37086268  0.86285989    -0.04100
Br724      Br  0.90739343  0.46451909  0.87313880    -0.00100
C725        C  0.54856951  0.02180371  0.88142578     0.01300
C726        C  0.55274457  0.02215813  0.85168728     0.04200
C727        C  0.58969122  0.04002706  0.83889735    -0.11900
C728        C  0.62372201  0.05609465  0.85449571     0.23500
C729        C  0.62119417  0.05192289  0.88302466    -0.12500
C730        C  0.58461890  0.03442769  0.89672058     0.04900
C731        C  0.66235820  0.07633265  0.84036296     0.27300
C732        C  0.67536368  0.05416245  0.82565760    -0.13200
C733        C  0.70865352  0.07295743  0.80885260     0.05400
C734        C  0.73024371  0.11450741  0.80729106    -0.09100
C735        C  0.71779595  0.13667067  0.82285209     0.06200
C736        C  0.68446629  0.11763101  0.83970574    -0.13500
Br737      Br  0.66967115  0.06997257  0.90294038    -0.05600
Br738      Br  0.51192782  0.50370213  0.82614426     0.00100
Br739      Br  0.72113974  0.04070691  0.78567330     0.00500
Br740      Br  0.66944907  0.14834912  0.86219446    -0.03900
Br741      Br  0.58981212  0.02592980  0.93549754     0.00600
Br742      Br  0.59448167  0.04606411  0.79921194    -0.03200
Br743      Br  0.64652650  0.99759825  0.82806056    -0.04100
Br744      Br  0.74549550  0.19317311  0.82095098    -0.00100
C745        C  0.99093421  0.03722137  0.88525777     0.01300
C746        C  0.01000815  0.06704911  0.86434731     0.04200
C747        C  0.98872350  0.07986523  0.84862388    -0.11900
C748        C  0.95282486  0.07366123  0.85800593     0.23500
C749        C  0.93940447  0.05630929  0.88377854    -0.12500
C750        C  0.95830362  0.03867736  0.89785249     0.04900
C751        C  0.93072572  0.08788729  0.84144626     0.27300
C752        C  0.93496359  0.12506244  0.84637730    -0.13200
C753        C  0.91534224  0.13924056  0.82985770     0.05400
C754        C  0.89244095  0.11686725  0.80727313    -0.09100
C755        C  0.88735471  0.07861499  0.80313935     0.06200
C756        C  0.90671186  0.06468052  0.82004090    -0.13500
Br757      Br  0.89253801  0.05382752  0.89823627    -0.05600
Br758      Br  0.56546251  0.10353813  0.86210594     0.00100
Br759      Br  0.91892675  0.18853217  0.83985234     0.00500
Br760      Br  0.90197991  0.01411297  0.81296955    -0.03900
Br761      Br  0.93666531  0.51651417  0.93355584     0.00600
Br762      Br  0.51007845  0.10860804  0.81479327    -0.03200
Br763      Br  0.96921634  0.15711257  0.87531562    -0.04100
Br764      Br  0.85502948  0.04393391  0.77424794    -0.00100
C765        C  0.89640844  0.26897662  0.68545415     0.01300
C766        C  0.87270671  0.27724243  0.66820328     0.04200
C767        C  0.88982390  0.30853614  0.64939828    -0.11900
C768        C  0.93058595  0.33237766  0.64823546     0.23500
C769        C  0.95422696  0.32146037  0.66309591    -0.12500
C770        C  0.93732915  0.29005867  0.68182778     0.04900
C771        C  0.94754486  0.37253036  0.63651991     0.27300
C772        C  0.96729939  0.38301656  0.61132456    -0.13200
C773        C  0.98720046  0.42288158  0.60290302     0.05400
C774        C  0.98049757  0.45180648  0.61675909    -0.09100
C775        C  0.95100429  0.43566859  0.63797299     0.06200
C776        C  0.94195504  0.40023024  0.65067804    -0.13500
Br777      Br  0.00995882  0.35061409  0.65892765    -0.05600
Br778      Br  0.81677257  0.24644226  0.67042482     0.00100
Br779      Br  0.02713418  0.43531791  0.57551454     0.00500
Br780      Br  0.91914172  0.38883082  0.68709840    -0.03900
Br781      Br  0.97134274  0.27972572  0.70452727     0.00600
Br782      Br  0.85763199  0.32052812  0.62614707    -0.03200
Br783      Br  0.96791037  0.34262877  0.58913169    -0.04100
Br784      Br  0.90962208  0.44772057  0.64403477    -0.00100
C785        C  0.54546596  0.01973936  0.62130000     0.01300
C786        C  0.56581166  0.00228596  0.63523352     0.04200
C787        C  0.60444744  0.02558924  0.64476615    -0.11900
C788        C  0.62149411  0.06625777  0.64621841     0.23500
C789        C  0.60227395  0.08449061  0.63472160    -0.12500
C790        C  0.56649054  0.06232940  0.62084283     0.04900
C791        C  0.65756746  0.08895387  0.66283754     0.27300
C792        C  0.65423447  0.09157168  0.69145255    -0.13200
C793        C  0.68769160  0.10869083  0.70798394     0.05400
C794        C  0.72489927  0.12280311  0.69616642    -0.09100
C795        C  0.72844053  0.12156614  0.66742267     0.06200
C796        C  0.69485036  0.10506414  0.65075513    -0.13500
Br797      Br  0.62608423  0.14080513  0.63818409    -0.05600
Br798      Br  0.54394004  0.45024308  0.64892285     0.00100
Br799      Br  0.68214953  0.11330976  0.74686510     0.00500
Br800      Br  0.69960482  0.10370392  0.61147733    -0.03900
Br801      Br  0.55091391  0.09351871  0.59940751     0.00600
Br802      Br  0.63353490  0.50312589  0.66160487    -0.03200
Br803      Br  0.60346539  0.07083651  0.70811597    -0.04100
Br804      Br  0.77910365  0.14033725  0.65115844    -0.00100
C805        C  0.98029415  0.01782304  0.62209455     0.01300
C806        C  0.98154951  0.02381022  0.65162686     0.04200
C807        C  0.96130905  0.04089979  0.66431141    -0.11900
C808        C  0.93769813  0.05087468  0.64892999     0.23500
C809        C  0.93615098  0.04639165  0.62045557    -0.12500
C810        C  0.95933259  0.03338990  0.60678420     0.04900
C811        C  0.91701491  0.06944963  0.66256880     0.27300
C812        C  0.87845972  0.04666048  0.67217983    -0.13200
C813        C  0.86039259  0.06429627  0.68695725     0.05400
C814        C  0.88068082  0.10521908  0.69172058    -0.09100
C815        C  0.91760024  0.12820670  0.67926673     0.06200
C816        C  0.93619115  0.11037123  0.66569760    -0.13500
Br817      Br  0.90199387  0.05962937  0.60023587    -0.05600
Br818      Br  0.50583200  0.00485680  0.67730562     0.00100
Br819      Br  0.80840707  0.03163146  0.70105805     0.00500
Br820      Br  0.98861981  0.14196083  0.65193040    -0.03900
Br821      Br  0.96509066  0.04661286  0.56804339     0.00600
Br822      Br  0.96341775  0.04874237  0.70371417    -0.03200
Br823      Br  0.85066482  0.99111880  0.66537738    -0.04100
Br824      Br  0.94185152  0.18444656  0.67865261    -0.00100
C825        C  0.49148415  0.49315767  0.42535765     0.01300
C826        C  0.97386224  0.01021629  0.44340396     0.04200
C827        C  0.97754888  0.01211984  0.47232870    -0.11900
C828        C  0.49732141  0.49638818  0.48488188     0.23500
C829        C  0.51309940  0.47745609  0.46961328    -0.12500
C830        C  0.50754413  0.47266140  0.44083746     0.04900
C831        C  0.49935729  0.49694042  0.51566619     0.27300
C832        C  0.53367185  0.02207282  0.53022063    -0.13200
C833        C  0.53692381  0.01860119  0.55885905     0.05400
C834        C  0.50306727  0.49753010  0.57519270    -0.09100
C835        C  0.96769485  0.47215495  0.56011470     0.06200
C836        C  0.96721908  0.47021034  0.53109836    -0.13500
Br837      Br  0.54073704  0.45568447  0.48924618    -0.05600
Br838      Br  0.94313728  0.03219816  0.42978748     0.00100
Br839      Br  0.59030073  0.03555548  0.56934723     0.00500
Br840      Br  0.92173297  0.43103938  0.51171271    -0.03900
Br841      Br  0.51278973  0.42872737  0.42771417     0.00600
Br842      Br  0.95648377  0.03853125  0.49423108    -0.03200
Br843      Br  0.57728399  0.06053955  0.50880753    -0.04100
Br844      Br  0.91709581  0.44121360  0.57682894    -0.00100
C845        C  0.50518702  0.50409255  0.92718319     0.01300
C846        C  0.52402402  0.03987327  0.94325035     0.04200
C847        C  0.52514295  0.03835203  0.97219275    -0.11900
C848        C  0.50606689  0.50142389  0.98631990     0.22500
C849        C  0.98259787  0.46732348  0.97148357    -0.12500
C850        C  0.98038737  0.46837241  0.94257074     0.04900
C851        C  0.50371377  0.50047761  0.01681597     0.27300
C852        C  0.52048480  0.48265088  0.03212358    -0.13200
C853        C  0.51168975  0.47477541  0.06026217     0.05400
C854        C  0.49475944  0.49425506  0.07556241    -0.09100
C855        C  0.97748772  0.01270705  0.05926209     0.06200
C856        C  0.97952187  0.01361506  0.03033631    -0.13500
Br857      Br  0.95040230  0.41918616  0.99192017    -0.05600
Br858      Br  0.55250465  0.09181988  0.92795466     0.00100
Br859      Br  0.51485795  0.42964157  0.07281875     0.00500
Br860      Br  0.94888612  0.03002609  0.00873132    -0.03900
Br861      Br  0.93442451  0.42251786  0.92858489     0.00600
Br862      Br  0.55603103  0.08541677  0.99347759    -0.03200
Br863      Br  0.55388324  0.46680494  0.01365150    -0.04100
Br864      Br  0.94701763  0.03380522  0.07408851    -0.00100
C865        C  0.51026853  0.47108874  0.37868471     0.01300
C866        C  0.55217568  0.48685382  0.37949547     0.04200
C867        C  0.57068158  0.46992928  0.36434720    -0.11900
C868        C  0.54891512  0.43293035  0.35266910     0.23500
C869        C  0.50853953  0.41366307  0.35484936    -0.12500
C870        C  0.48929112  0.43378364  0.36418372     0.04900
C871        C  0.56768263  0.41550564  0.33539372     0.27300
C872        C  0.56797338  0.41960441  0.30666771    -0.13200
C873        C  0.58249083  0.40075942  0.28979266     0.05400
C874        C  0.59866291  0.37907835  0.30135936    -0.09100
C875        C  0.59686322  0.37353760  0.33006730     0.06200
C876        C  0.58150674  0.39180636  0.34704701    -0.13500
Br877      Br  0.47998006  0.35930670  0.34296780    -0.05600
Br878      Br  0.58689366  0.52909731  0.40305796     0.00100
Br879      Br  0.57541066  0.40073682  0.25081656     0.00500
Br880      Br  0.57839952  0.38375061  0.38618553    -0.03900
Br881      Br  0.93750782  0.40926702  0.34960532     0.00600
Br882      Br  0.62658102  0.49714535  0.35945033    -0.03200
Br883      Br  0.54745774  0.45042962  0.29030755    -0.04100
Br884      Br  0.61433733  0.34011518  0.34605442    -0.00100
C885        C  0.94790007  0.48206176  0.38291331     0.01300
C886        C  0.93673728  0.50560317  0.36607463     0.04200
C887        C  0.90124802  0.48830001  0.35191173    -0.11900
C888        C  0.87313232  0.44975928  0.35749456     0.23500
C889        C  0.87853565  0.42985271  0.37945195    -0.12500
C890        C  0.91522937  0.44587522  0.39262540     0.04900
C891        C  0.83805764  0.43056963  0.33993773     0.27300
C892        C  0.80205873  0.42522476  0.34938879    -0.13200
C893        C  0.76883837  0.40624561  0.33268329     0.05400
C894        C  0.77211324  0.39493054  0.30575317    -0.09100
C895        C  0.80913874  0.40394773  0.29554015     0.06200
C896        C  0.84162866  0.42052629  0.31276103    -0.13500
Br897      Br  0.83682693  0.37790343  0.38869931    -0.05600
Br898      Br  0.95956231  0.06096367  0.36670709     0.00100
Br899      Br  0.71911254  0.39493411  0.34730628     0.00500
Br900      Br  0.89150829  0.43132805  0.29821999    -0.03900
Br901      Br  0.91882296  0.41327462  0.42089268     0.00600
Br902      Br  0.89056487  0.01481033  0.32420981    -0.03200
Br903      Br  0.79892464  0.44589304  0.38462502    -0.04100
Br904      Br  0.81713516  0.39742025  0.25723575    -0.00100
C905        C  0.51943643  0.03889253  0.38100978     0.01300
C906        C  0.52439281  0.04346282  0.35138395     0.04200
C907        C  0.54531917  0.08081192  0.33889178    -0.11900
C908        C  0.55994454  0.11499643  0.35459964     0.23500
C909        C  0.55770840  0.11213014  0.38322623    -0.12500
C910        C  0.54012355  0.07510868  0.39661871     0.04900
C911        C  0.57968755  0.15421274  0.34078415     0.27300
C912        C  0.61822544  0.16985635  0.33133390    -0.13200
C913        C  0.63552907  0.20420540  0.31518382     0.05400
C914        C  0.61465936  0.22407221  0.30912216    -0.09100
C915        C  0.57724908  0.21006265  0.32063934     0.06200
C916        C  0.55984286  0.17528192  0.33622498    -0.13500
Br917      Br  0.58023056  0.16063297  0.40391810    -0.05600
Br918      Br  0.49893949  0.00049238  0.32557246     0.00100
Br919      Br  0.68633238  0.22095380  0.29952791     0.00500
Br920      Br  0.50880588  0.15724087  0.35134021    -0.03900
Br921      Br  0.05214131  0.07969522  0.43543709     0.00600
Br922      Br  0.55248172  0.08583578  0.29937721    -0.03200
Br923      Br  0.64693309  0.14338780  0.34033155    -0.04100
Br924      Br  0.54950288  0.23865432  0.31563080    -0.00100
C925        C  0.52164705  0.47992948  0.12101892     0.01300
C926        C  0.50411728  0.44393870  0.13694466     0.04200
C927        C  0.52604761  0.43575967  0.15547500    -0.11900
C928        C  0.56587709  0.45194039  0.15128227     0.23500
C929        C  0.58437450  0.48161979  0.13154262    -0.12500
C930        C  0.56329422  0.49668700  0.11712579     0.04900
C931        C  0.58627260  0.43273725  0.16425585     0.27300
C932        C  0.61513263  0.45246900  0.18421672    -0.13200
C933        C  0.63365399  0.43366887  0.19662579     0.05400
C934        C  0.61990776  0.39334526  0.19169971    -0.09100
C935        C  0.59089339  0.37361224  0.17184306     0.06200
C936        C  0.57557489  0.39376021  0.15719830    -0.13500
Br937      Br  0.63858687  0.49926137  0.12316175    -0.05600
Br938      Br  0.95451615  0.39773600  0.12891808     0.00100
Br939      Br  0.67526046  0.46272127  0.22235532     0.00500
Br940      Br  0.53927911  0.36744209  0.12773931    -0.03900
Br941      Br  0.59246467  0.53085175  0.08724492     0.00600
Br942      Br  0.50053340  0.39947832  0.18547663    -0.03200
Br943      Br  0.62675465  0.50396292  0.19629457    -0.04100
Br944      Br  0.57185269  0.31885629  0.16470949    -0.00100
C945        C  0.95377959  0.47300056  0.12200284     0.01300
C946        C  0.91818503  0.44840135  0.10726015     0.04200
C947        C  0.88187568  0.43251725  0.12070471    -0.11900
C948        C  0.87977273  0.43475209  0.14923852     0.23500
C949        C  0.91385114  0.45366399  0.16478290    -0.12500
C950        C  0.95048805  0.47304493  0.15174805     0.04900
C951        C  0.84146795  0.41442681  0.16326571     0.27300
C952        C  0.81944314  0.43330312  0.16660255    -0.13200
C953        C  0.78405807  0.41468028  0.18102712     0.05400
C954        C  0.77153138  0.37789453  0.19371963    -0.09100
C955        C  0.79308200  0.35829417  0.18938059     0.06200
C956        C  0.82741432  0.37627123  0.17357876    -0.13500
Br957      Br  0.90966781  0.45453615  0.20438847    -0.05600
Br958      Br  0.91526104  0.42501457  0.07165164     0.00100
Br959      Br  0.75252091  0.43967070  0.18238744     0.00500
Br960      Br  0.85602131  0.34915369  0.16635749    -0.03900
Br961      Br  0.99647388  0.00055589  0.17622811     0.00600
Br962      Br  0.83375289  0.40530784  0.10027751    -0.03200
Br963      Br  0.83801962  0.48511544  0.15186232    -0.04100
Br964      Br  0.77863584  0.30865368  0.20678887    -0.00100
C965        C  0.61219717  0.21741983  0.19609300     0.01300
C966        C  0.60126247  0.18012399  0.20743624     0.04200
C967        C  0.58733719  0.14705992  0.19043593    -0.11900
C968        C  0.58131715  0.15026994  0.16234181     0.23500
C969        C  0.59176921  0.18723735  0.15094880    -0.12500
C970        C  0.60880860  0.22094395  0.16754577     0.04900
C971        C  0.55804030  0.11414877  0.14609047     0.27300
C972        C  0.57501219  0.10263574  0.12556073    -0.13200
C973        C  0.55111155  0.07153309  0.10818287     0.05400
C974        C  0.51329553  0.04273406  0.11687804    -0.09100
C975        C  0.49454837  0.05899082  0.13417519     0.06200
C976        C  0.51748224  0.09411758  0.14883163    -0.13500
Br977      Br  0.57996381  0.19121175  0.11305726    -0.05600
Br978      Br  0.60148360  0.17274057  0.24656393     0.00100
Br979      Br  0.55972258  0.08697410  0.07002458     0.00500
Br980      Br  0.99388643  0.11608534  0.17287582    -0.03900
Br981      Br  0.62927224  0.27183569  0.15078586     0.00600
Br982      Br  0.57413228  0.09661316  0.20588389    -0.03200
Br983      Br  0.63005647  0.13270308  0.11827730    -0.04100
Br984      Br  0.93905207  0.04016849  0.13801745    -0.00100
O985        O  0.73566849  0.84651774  0.27358408    -0.85400
O986        O  0.66652451  0.78172083  0.28780881    -0.82400
C987        C  0.63066426  0.75744567  0.28891767     0.98100
O988        O  0.60770986  0.75907054  0.27145356    -0.82400
O989        O  0.60619016  0.82766170  0.28187501    -0.85100
C990        C  0.61927148  0.86405021  0.28422935     1.02600
O991        O  0.64830623  0.88818184  0.27013312    -0.77800
O992        O  0.71422925  0.88565100  0.28629143    -0.78000
C993        C  0.73859816  0.87404783  0.28854093     1.02600
O994        O  0.71730597  0.82759710  0.21696458    -0.85400
O995        O  0.65326462  0.75771826  0.23165971    -0.82400
C996        C  0.62790042  0.75317969  0.21416199     0.98100
O997        O  0.61478491  0.77669132  0.21359717    -0.82400
O998        O  0.60859208  0.84355947  0.22427489    -0.85100
C999        C  0.63358594  0.87291689  0.21071245     1.02600
O1000       O  0.66929354  0.88565630  0.21418335    -0.77900
O1001       O  0.73670184  0.88783302  0.23000807    -0.78000
C1002       C  0.74019789  0.86387013  0.21448405     1.02600
Cr1003     Cr  0.69110201  0.80540689  0.25235131     1.93700
Cr1004     Cr  0.61328821  0.80381873  0.24785783     1.93200
Cr1005     Cr  0.69002853  0.88264543  0.25022255     1.39100
O1006       O  0.66465651  0.83072624  0.25018969    -1.23100
C1007       C  0.49612306  0.99734920  0.10822194    -0.02500
C1008       C  0.49209915  0.99571188  0.39347392    -0.02500
O1009       O  0.85470444  0.74038112  0.72391875    -0.85400
O1010       O  0.78470780  0.67304149  0.71558932    -0.82400
C1011       C  0.76005848  0.63706802  0.71493909     0.98100
O1012       O  0.76361519  0.61332545  0.73059324    -0.82400
O1013       O  0.83102141  0.61241461  0.71470981    -0.85100
C1014       C  0.86663978  0.62300341  0.71191474     1.02600
O1015       O  0.89135519  0.64853950  0.72788761    -0.77800
O1016       O  0.89098109  0.71504201  0.71177428    -0.78000
C1017       C  0.87914683  0.73900888  0.70769411     1.02600
O1018       O  0.84326767  0.72857321  0.78241540    -0.85400
O1019       O  0.77054564  0.66234000  0.77379158    -0.82400
C1020       C  0.76600492  0.63417811  0.78912400     0.98100
O1021       O  0.78817166  0.61996465  0.78657265    -0.82400
O1022       O  0.84961889  0.61096506  0.77184615    -0.85100
C1023       C  0.87697495  0.63363537  0.78757831     1.02600
O1024       O  0.89214458  0.67014847  0.78423132    -0.77900
O1025       O  0.90076060  0.74209866  0.76738867    -0.78000
C1026       C  0.87980306  0.75007074  0.78278329     1.02600
Cr1027     Cr  0.81521691  0.69882655  0.74908349     1.93700
Cr1028     Cr  0.81032480  0.61826393  0.75070751     1.93200
Cr1029     Cr  0.88970081  0.69229573  0.74805040     1.39100
O1030       O  0.83832031  0.66990942  0.74936080    -1.23100
C1031       C  0.50574546  0.00688021  0.89422166    -0.02500
C1032       C  0.50204680  0.99624143  0.60887465    -0.02500
C1033       C  0.89841045  0.78616507  0.80015050     0.01300
C1034       C  0.92651255  0.82253557  0.78865246     0.04200
C1035       C  0.94409384  0.85672796  0.80482036    -0.11900
C1036       C  0.93297642  0.85550882  0.83238504     0.23500
C1037       C  0.90469270  0.81955709  0.84393818    -0.12500
C1038       C  0.88782253  0.78497820  0.82803429     0.04900
C1039       C  0.94968913  0.89245102  0.84880893     0.27300
C1040       C  0.98215969  0.90342667  0.86539915    -0.13200
C1041       C  0.99660034  0.93705679  0.88219641     0.05400
C1042       C  0.98111589  0.96361646  0.88113068    -0.09100
C1043       C  0.94509746  0.94869042  0.86585735     0.06200
C1044       C  0.93148823  0.91516493  0.84888707    -0.13500
Br1045     Br  0.88866090  0.81801056  0.88156465    -0.05600
Br1046     Br  0.93899682  0.82712032  0.75012273     0.00100
Br1047     Br  0.53350130  0.94063041  0.90923047     0.00500
Br1048     Br  0.88736896  0.89969351  0.82469017    -0.03900
Br1049     Br  0.85120761  0.73588157  0.84494154     0.00600
Br1050     Br  0.98298628  0.90592247  0.78915652    -0.03200
Br1051     Br  0.50752693  0.87206472  0.86421084    -0.04100
Br1052     Br  0.90645446  0.96381586  0.87130918    -0.00100
C1053       C  0.55003756  0.52197460  0.88188939     0.01300
C1054       C  0.55463064  0.52285334  0.85219303     0.04200
C1055       C  0.59175379  0.54139874  0.83965463    -0.11900
C1056       C  0.62559985  0.55719627  0.85544020     0.23500
C1057       C  0.62272732  0.55265779  0.88394740    -0.12500
C1058       C  0.58594227  0.53451880  0.89738073     0.04900
C1059       C  0.66436968  0.57723024  0.84146279     0.27300
C1060       C  0.67710531  0.55487996  0.82667815    -0.13200
C1061       C  0.71034168  0.57349069  0.80980412     0.05400
C1062       C  0.73228740  0.61502344  0.80836409    -0.09100
C1063       C  0.72023018  0.63736055  0.82410747     0.06200
C1064       C  0.68669301  0.61850503  0.84079754    -0.13500
Br1065     Br  0.67097974  0.57115453  0.90424279    -0.05600
Br1066     Br  0.50980666  0.00374179  0.82586738     0.00100
Br1067     Br  0.72219425  0.54108132  0.78628530     0.00500
Br1068     Br  0.67125495  0.64939374  0.86271453    -0.03900
Br1069     Br  0.59064013  0.52422520  0.93590647     0.00600
Br1070     Br  0.59705501  0.54896481  0.80010698    -0.03200
Br1071     Br  0.64774947  0.49831335  0.82881990    -0.04100
Br1072     Br  0.74882835  0.69386264  0.82271056    -0.00100
C1073       C  0.99246570  0.53746918  0.88568971     0.01300
C1074       C  0.01125514  0.56674597  0.86447162     0.04200
C1075       C  0.98983163  0.57934812  0.84872378    -0.11900
C1076       C  0.95462389  0.57441263  0.85865003     0.23500
C1077       C  0.94199191  0.55806704  0.88481195    -0.12500
C1078       C  0.96047937  0.53976368  0.89863183     0.04900
C1079       C  0.93230088  0.58853761  0.84214814     0.27300
C1080       C  0.93726172  0.62614172  0.84642071    -0.13200
C1081       C  0.91701106  0.63987123  0.83010929     0.05400
C1082       C  0.89296754  0.61669275  0.80816281    -0.09100
C1083       C  0.88637092  0.57773899  0.80525401     0.06200
C1084       C  0.90658659  0.56435044  0.82177460    -0.13500
Br1085     Br  0.89688202  0.55816216  0.90030507    -0.05600
Br1086     Br  0.56651246  0.60406347  0.86283242     0.00100
Br1087     Br  0.92030369  0.68904293  0.83996866     0.00500
Br1088     Br  0.90059728  0.51313210  0.81550256    -0.03900
Br1089     Br  0.93456329  0.01573140  0.93284956     0.00600
Br1090     Br  0.51052388  0.60656682  0.81434234    -0.03200
Br1091     Br  0.97330979  0.65940242  0.87412972    -0.04100
Br1092     Br  0.84955249  0.54065902  0.77927930    -0.00100
C1093       C  0.89585459  0.76740612  0.68472117     0.01300
C1094       C  0.87152647  0.77504346  0.66764623     0.04200
C1095       C  0.88796815  0.80603582  0.64855752    -0.11900
C1096       C  0.92865872  0.83035616  0.64710638     0.23500
C1097       C  0.95286070  0.81995953  0.66175136    -0.12500
C1098       C  0.93664507  0.78868187  0.68058594     0.04900
C1099       C  0.94509114  0.87058445  0.63560510     0.27300
C1100       C  0.96545486  0.88173956  0.61067993    -0.13200
C1101       C  0.98605720  0.92187180  0.60301046     0.05400
C1102       C  0.97932345  0.95061469  0.61711449    -0.09100
C1103       C  0.94914406  0.93398148  0.63789528     0.06200
C1104       C  0.93935444  0.89798151  0.65005030    -0.13500
Br1105     Br  0.00849958  0.84995061  0.65739201    -0.05600
Br1106     Br  0.81568048  0.74398028  0.67060522     0.00100
Br1107     Br  0.02673798  0.93466464  0.57618913     0.00500
Br1108     Br  0.91548888  0.88547044  0.68614327    -0.03900
Br1109     Br  0.97144522  0.77876907  0.70270732     0.00600
Br1110     Br  0.85494551  0.81707525  0.62546591    -0.03200
Br1111     Br  0.96567241  0.84181060  0.58770886    -0.04100
Br1112     Br  0.90815896  0.94663155  0.64419068    -0.00100
C1113       C  0.54644804  0.52072429  0.62091196     0.01300
C1114       C  0.56635889  0.50326372  0.63553015     0.04200
C1115       C  0.60443347  0.52657997  0.64610136    -0.11900
C1116       C  0.62156508  0.56727010  0.64727219     0.23500
C1117       C  0.60286603  0.58549614  0.63492919    -0.12500
C1118       C  0.56745011  0.56331506  0.62056793     0.04900
C1119       C  0.65770828  0.59009769  0.66388100     0.27300
C1120       C  0.65464083  0.59263473  0.69254939    -0.13200
C1121       C  0.68822059  0.60904643  0.70901071     0.05400
C1122       C  0.72527614  0.62262184  0.69706820    -0.09100
C1123       C  0.72856347  0.62159076  0.66827857     0.06200
C1124       C  0.69488544  0.60574869  0.65170842    -0.13500
Br1125     Br  0.62674197  0.64183108  0.63811898    -0.05600
Br1126     Br  0.54355581  0.94940592  0.64881608     0.00100
Br1127     Br  0.68314465  0.61345546  0.74798229     0.00500
Br1128     Br  0.69932406  0.60459822  0.61238526    -0.03900
Br1129     Br  0.55184137  0.59444196  0.59904067     0.00600
Br1130     Br  0.63459328  0.00213421  0.65813545    -0.03200
Br1131     Br  0.60409053  0.57272265  0.70937544    -0.04100
Br1132     Br  0.77895099  0.63968599  0.65175192    -0.00100
C1133       C  0.98116920  0.51889942  0.62124972     0.01300
C1134       C  0.98267917  0.52568156  0.65070348     0.04200
C1135       C  0.96251478  0.54307625  0.66305748    -0.11900
C1136       C  0.93804074  0.55174248  0.64756234     0.23500
C1137       C  0.93598945  0.54619486  0.61919629    -0.12500
C1138       C  0.95975731  0.53376546  0.60572913     0.04900
C1139       C  0.91669502  0.56973605  0.66100443     0.27300
C1140       C  0.87940686  0.54618827  0.67251140    -0.13200
C1141       C  0.86158754  0.56333649  0.68807862     0.05400
C1142       C  0.88039744  0.60449653  0.69125683    -0.09100
C1143       C  0.91541393  0.62797734  0.67669357     0.06200
C1144       C  0.93417631  0.61075752  0.66255398    -0.13500
Br1145     Br  0.90033927  0.55713733  0.59882604    -0.05600
Br1146     Br  0.50721564  0.50757761  0.67683427     0.00100
Br1147     Br  0.81233790  0.52982833  0.70577573     0.00500
Br1148     Br  0.98445927  0.64336412  0.64576647    -0.03900
Br1149     Br  0.96584227  0.54724298  0.56703700     0.00600
Br1150     Br  0.96612332  0.55334437  0.70219329    -0.03200
Br1151     Br  0.85284719  0.49039846  0.66695330    -0.04100
Br1152     Br  0.93641252  0.68370189  0.67408178    -0.00100
C1153       C  0.49230388  0.99350253  0.42650163     0.01300
C1154       C  0.97206246  0.50875570  0.44238392     0.04200
C1155       C  0.97597192  0.51091564  0.47135211    -0.11900
C1156       C  0.49773482  0.99632831  0.48584215     0.23500
C1157       C  0.51276930  0.97663645  0.47069549    -0.12500
C1158       C  0.50741263  0.97213431  0.44194248     0.04900
C1159       C  0.49939029  0.99658745  0.51650315     0.27300
C1160       C  0.53373252  0.52265253  0.52929320    -0.13200
C1161       C  0.53731953  0.51943799  0.55797971     0.05400
C1162       C  0.50237696  0.99683618  0.57587365    -0.09100
C1163       C  0.96709588  0.97171825  0.56065425     0.06200
C1164       C  0.96697737  0.96987138  0.53168291    -0.13500
Br1165     Br  0.53883797  0.95329229  0.49047869    -0.05600
Br1166     Br  0.93938639  0.52863110  0.42902235     0.00100
Br1167     Br  0.59080917  0.53725563  0.56849385     0.00500
Br1168     Br  0.92171839  0.93089150  0.51200359    -0.03900
Br1169     Br  0.51090642  0.92721522  0.42884023     0.00600
Br1170     Br  0.95353549  0.53600788  0.49328992    -0.03200
Br1171     Br  0.57694287  0.56140766  0.50776088    -0.04100
Br1172     Br  0.91623594  0.94111449  0.57705551    -0.00100
C1173       C  0.50398894  0.00462939  0.92695989     0.01300
C1174       C  0.52553516  0.53908224  0.94367541     0.04200
C1175       C  0.52733907  0.53707325  0.97253577    -0.11900
C1176       C  0.50463770  0.00268488  0.98612712     0.22500
C1177       C  0.98159901  0.96831481  0.97141849    -0.12500
C1178       C  0.97919498  0.96909345  0.94252217     0.04900
C1179       C  0.50297843  0.00171180  0.01665631     0.27300
C1180       C  0.52048770  0.98423614  0.03154570    -0.13200
C1181       C  0.51225590  0.97604241  0.05972745     0.05400
C1182       C  0.49527653  0.99505716  0.07550145    -0.09100
C1183       C  0.97720394  0.51166927  0.05888839     0.06200
C1184       C  0.98026501  0.51284091  0.03000800    -0.13500
Br1185     Br  0.95007025  0.92015247  0.99198585    -0.05600
Br1186     Br  0.55311450  0.59135313  0.92881608     0.00100
Br1187     Br  0.51658331  0.93134157  0.07175211     0.00500
Br1188     Br  0.95133329  0.53064156  0.00780706    -0.03900
Br1189     Br  0.93308287  0.92315865  0.92871812     0.00600
Br1190     Br  0.56068517  0.58327508  0.99387413    -0.03200
Br1191     Br  0.55395467  0.96909860  0.01238258    -0.04100
Br1192     Br  0.94571476  0.53200299  0.07309732    -0.00100
C1193       C  0.51041132  0.97056439  0.38008036     0.01300
C1194       C  0.55239393  0.98688437  0.38022261     0.04200
C1195       C  0.57095293  0.97074522  0.36431385    -0.11900
C1196       C  0.54943255  0.93369289  0.35270990     0.23500
C1197       C  0.50913942  0.91359359  0.35569643    -0.12500
C1198       C  0.48943064  0.93268732  0.36626283     0.04900
C1199       C  0.56841344  0.91630248  0.33560676     0.27300
C1200       C  0.56660532  0.91790396  0.30680189    -0.13200
C1201       C  0.58110607  0.89869898  0.29028613     0.05400
C1202       C  0.59931908  0.87921690  0.30220788    -0.09100
C1203       C  0.59932590  0.87579158  0.33103765     0.06200
C1204       C  0.58417848  0.89455737  0.34771461    -0.13500
Br1205     Br  0.48145011  0.85907839  0.34391477    -0.05600
Br1206     Br  0.58727315  0.02889427  0.40383680     0.00100
Br1207     Br  0.57119782  0.89484578  0.25151669     0.00500
Br1208     Br  0.58398904  0.88978770  0.38709390    -0.03900
Br1209     Br  0.93546946  0.90374157  0.35696638     0.00600
Br1210     Br  0.62657414  0.99934270  0.35803940    -0.03200
Br1211     Br  0.54321267  0.94569527  0.28986937    -0.04100
Br1212     Br  0.61822834  0.84390384  0.34758008    -0.00100
C1213       C  0.94787780  0.98174317  0.38454881     0.01300
C1214       C  0.93694418  0.00452133  0.36676425     0.04200
C1215       C  0.90162115  0.98662436  0.35246621    -0.11900
C1216       C  0.87319161  0.94864480  0.35910851     0.23500
C1217       C  0.87818809  0.93007840  0.38203522    -0.12500
C1218       C  0.91475713  0.94676126  0.39545494     0.04900
C1219       C  0.83809754  0.92878808  0.34172194     0.27300
C1220       C  0.80283985  0.92619701  0.35014431    -0.13200
C1221       C  0.76984973  0.90778684  0.33317111     0.05400
C1222       C  0.77276290  0.89421491  0.30687948    -0.09100
C1223       C  0.80937040  0.90038257  0.29769013     0.06200
C1224       C  0.84132749  0.91605120  0.31538878    -0.13500
Br1225     Br  0.83617602  0.87869668  0.39216453    -0.05600
Br1226     Br  0.95976986  0.56214608  0.36698035     0.00100
Br1227     Br  0.72114020  0.90101458  0.34660306     0.00500
Br1228     Br  0.89030131  0.92197095  0.30269909    -0.03900
Br1229     Br  0.91696823  0.91640234  0.42599915     0.00600
Br1230     Br  0.88945095  0.51796833  0.32529689    -0.03200
Br1231     Br  0.80060200  0.94984605  0.38431609    -0.04100
Br1232     Br  0.81816146  0.89210875  0.25992848    -0.00100
C1233       C  0.51932735  0.53938267  0.38007102     0.01300
C1234       C  0.52415800  0.54452755  0.35045912     0.04200
C1235       C  0.54451738  0.58206702  0.33824861    -0.11900
C1236       C  0.56013112  0.61587589  0.35433943     0.23500
C1237       C  0.55850493  0.61253538  0.38293755    -0.12500
C1238       C  0.54009954  0.57526991  0.39600819     0.04900
C1239       C  0.58025557  0.65517666  0.34081658     0.27300
C1240       C  0.61826520  0.66982494  0.33053829    -0.13200
C1241       C  0.63579160  0.70431599  0.31459766     0.05400
C1242       C  0.61541546  0.72484444  0.30917247    -0.09100
C1243       C  0.57848483  0.71161330  0.32125426     0.06200
C1244       C  0.56096025  0.67689528  0.33686819    -0.13500
Br1245     Br  0.58283273  0.66075744  0.40397707    -0.05600
Br1246     Br  0.49944662  0.50225279  0.32420135     0.00100
Br1247     Br  0.68615358  0.72044793  0.29836032     0.00500
Br1248     Br  0.51022609  0.65935604  0.35240500    -0.03900
Br1249     Br  0.05050107  0.57894593  0.43502030     0.00600
Br1250     Br  0.54922187  0.58804811  0.29859207    -0.03200
Br1251     Br  0.64555055  0.64129556  0.33753165    -0.04100
Br1252     Br  0.55161547  0.74116642  0.31689064    -0.00100
C1253       C  0.52211092  0.97968202  0.12074318     0.01300
C1254       C  0.50430567  0.94329117  0.13618919     0.04200
C1255       C  0.52572565  0.93490420  0.15507376    -0.11900
C1256       C  0.56590648  0.95232384  0.15207746     0.23500
C1257       C  0.58484422  0.98235181  0.13264819    -0.12500
C1258       C  0.56386136  0.99679062  0.11745971     0.04900
C1259       C  0.58644378  0.93358283  0.16543776     0.27300
C1260       C  0.61392617  0.95300752  0.18628675    -0.13200
C1261       C  0.63279661  0.93463061  0.19880472     0.05400
C1262       C  0.62078410  0.89493925  0.19287972    -0.09100
C1263       C  0.59325715  0.87560319  0.17207148     0.06200
C1264       C  0.57764134  0.89547718  0.15747050    -0.13500
Br1265     Br  0.63959704  0.00107778  0.12558448    -0.05600
Br1266     Br  0.95502336  0.89734154  0.12716593     0.00100
Br1267     Br  0.67281422  0.96328033  0.22565068     0.00500
Br1268     Br  0.54375544  0.87011442  0.12665034    -0.03900
Br1269     Br  0.59330364  0.02992000  0.08720334     0.00600
Br1270     Br  0.49919053  0.89671270  0.18389882    -0.03200
Br1271     Br  0.62352137  0.00355400  0.19903873    -0.04100
Br1272     Br  0.57679001  0.82183246  0.16346787    -0.00100
C1273       C  0.95457420  0.97318694  0.12213354     0.01300
C1274       C  0.91883522  0.94854145  0.10755537     0.04200
C1275       C  0.88270954  0.93196266  0.12133472    -0.11900
C1276       C  0.88098346  0.93465693  0.14986671     0.23500
C1277       C  0.91522185  0.95423995  0.16516565    -0.12500
C1278       C  0.95168702  0.97320057  0.15190604     0.04900
C1279       C  0.84288931  0.91461397  0.16416639     0.27300
C1280       C  0.82011696  0.93287638  0.16624349    -0.13200
C1281       C  0.78504949  0.91480352  0.18107571     0.05400
C1282       C  0.77321430  0.87891588  0.19487109    -0.09100
C1283       C  0.79542945  0.85980041  0.19174812     0.06200
C1284       C  0.82980898  0.87744468  0.17600672    -0.13500
Br1285     Br  0.91145392  0.95730115  0.20468150    -0.05600
Br1286     Br  0.91566983  0.92614284  0.07152164     0.00100
Br1287     Br  0.75291762  0.93915028  0.18149335     0.00500
Br1288     Br  0.85971367  0.85118131  0.17090431    -0.03900
Br1289     Br  0.99492139  0.50055064  0.17633316     0.00600
Br1290     Br  0.83430558  0.90329956  0.10138120    -0.03200
Br1291     Br  0.83714414  0.98297340  0.14896055    -0.04100
Br1292     Br  0.78165384  0.81133193  0.21074200    -0.00100
C1293       C  0.61197242  0.71830546  0.19590859     0.01300
C1294       C  0.60053868  0.68085350  0.20716451     0.04200
C1295       C  0.58615080  0.64774208  0.19012088    -0.11900
C1296       C  0.57956308  0.65090051  0.16211111     0.23500
C1297       C  0.59014054  0.68800234  0.15084874    -0.12500
C1298       C  0.60821760  0.72179002  0.16739186     0.04900
C1299       C  0.55645837  0.61465298  0.14575104     0.27300
C1300       C  0.57343095  0.60383480  0.12474921    -0.13200
C1301       C  0.54976165  0.57212012  0.10766356     0.05400
C1302       C  0.51228577  0.54276492  0.11661849    -0.09100
C1303       C  0.49334329  0.55862380  0.13402957     0.06200
C1304       C  0.51597457  0.59349795  0.14904875    -0.13500
Br1305     Br  0.57739258  0.69223241  0.11323971    -0.05600
Br1306     Br  0.60075778  0.67339362  0.24625310     0.00100
Br1307     Br  0.55787561  0.58680088  0.06936385     0.00500
Br1308     Br  0.99189293  0.61328677  0.17449442    -0.03900
Br1309     Br  0.63013228  0.77271830  0.15052196     0.00600
Br1310     Br  0.57348081  0.59735663  0.20537790    -0.03200
Br1311     Br  0.62816246  0.63519198  0.11671566    -0.04100
Br1312     Br  0.93786308  0.53996877  0.13696511    -0.00100
loop_ 
_geom_bond_atom_site_label_1 
_geom_bond_atom_site_label_2 
_geom_bond_distance 
_geom_bond_site_symmetry_2 
_ccdc_geom_bond_type 
O1          Cr19   1.995       .  S
O1            C9   1.262       .  A
O2          Cr19   1.975       .  S
O2            C3   1.260       .  A
C3            O4   1.271       .  A
C3          C258   1.489       .  S
O4          Cr20   2.019       .  S
O5          Cr20   1.992       .  S
O5            C6   1.263       .  A
C6            O7   1.267       .  A
C6          C218   1.488       .  S
O7          Cr21   2.016       .  S
O8          Cr21   1.979       .  S
O8            C9   1.259       .  A
C9          C238   1.479       .  S
O10         Cr19   1.978       .  S
O10          C18   1.259       .  A
O11         Cr19   1.994       .  S
O11          C12   1.261       .  A
C12          O13   1.264       .  A
C12         C309   1.484       .  S
O13         Cr20   1.997       .  S
O14         Cr20   2.021       .  S
O14          C15   1.269       .  A
C15          O16   1.255       .  A
C15         C278   1.482       .  S
O16         Cr21   1.967       .  S
O17         Cr21   2.007       .  S
O17          C18   1.268       .  A
C18         C298   1.484       .  S
Cr19         O22   1.768       .  S
Cr20         O22   1.769       .  S
Cr21         O22   1.770       .  S
C23         C198   1.596       .  S
C23         C269   1.619   1_655  S
C23         C945   1.585       .  S
C23         C646   1.624   1_655  S
C24         C169   1.619       .  S
C24         C209   1.621   1_655  S
C24         C885   1.611       .  S
C24         C577   1.609   1_655  S
O25         Cr43   2.019       .  S
O25          C33   1.270       .  A
O26         Cr43   1.988       .  S
O26          C27   1.259       .  A
C27          O28   1.264       .  A
C27         C138   1.484       .  S
O28         Cr44   2.014       .  S
O29         Cr44   1.996       .  S
O29          C30   1.263       .  A
C30          O31   1.266       .  A
C30         C158   1.496       .  S
O31         Cr45   2.009       .  S
O32         Cr45   1.968       .  S
O32          C33   1.257       .  A
C33         C109   1.483       .  S
O34         Cr43   1.991       .  S
O34          C42   1.262       .  A
O35         Cr43   2.026       .  S
O35          C36   1.271       .  A
C36          O37   1.257       .  A
C36          C78   1.491       .  S
O37         Cr44   1.968       .  S
O38         Cr44   2.000       .  S
O38          C39   1.263       .  A
C39          O40   1.264       .  A
C39          C98   1.502       .  S
O40         Cr45   1.983       .  S
O41         Cr45   2.017       .  S
O41          C42   1.267       .  A
C42          C49   1.496       .  S
Cr43         O46   1.776       .  S
Cr44         O46   1.766       .  S
Cr45         O46   1.771       .  S
C47         C189   1.596       .  S
C47         C714   1.616   1_455  S
C47         C397   1.618       .  S
C47        C1073   1.628   1_455  S
C48         C178   1.611       .  S
C48         C774   1.605   1_455  S
C48         C457   1.618       .  S
C48        C1133   1.612   1_455  S
C49          C50   1.418       .  A
C49          C54   1.415       .  A
C50          C51   1.409       .  A
C50         Br62   1.925       .  S
C51          C52   1.405       .  A
C51         Br66   1.931       .  S
C52          C55   1.496       .  S
C52          C53   1.412       .  A
C53          C54   1.415       .  A
C53         Br61   1.930       .  S
C54         Br65   1.929       .  S
C55          C56   1.395       .  A
C55          C60   1.396       .  A
C56          C57   1.415       .  A
C56        Br723   1.939       .  S
C57          C58   1.450       .  A
C57        Br719   1.921       .  S
C58         C703   1.616       .  S
C58          C59   1.452       .  A
C59          C60   1.418       .  A
C59         Br68   1.913       .  S
C60         Br64   1.942       .  S
Br63        C713   1.921   1_455  S
Br67        C712   1.939   1_455  S
C69         C375   1.617       .  S
C69          C70   1.457       .  A
C69          C74   1.463       .  A
C70          C71   1.413       .  A
C70        Br410   1.946       .  S
C71          C72   1.398       .  A
C71         Br86   1.945       .  S
C72          C75   1.494       .  S
C72          C73   1.397       .  A
C73          C74   1.422       .  A
C73         Br81   1.946       .  S
C74         Br85   1.947       .  S
C75          C76   1.408       .  A
C75          C80   1.412       .  A
C76          C77   1.407       .  A
C76         Br87   1.934   1_545  S
C77          C78   1.421       .  A
C77         Br83   1.936       .  S
C78          C79   1.415       .  A
C79          C80   1.410       .  A
C79         Br88   1.931       .  S
C80         Br84   1.929       .  S
Br82        C398   1.946       .  S
C89        C1031   1.627       .  S
C89          C90   1.448       .  A
C89          C94   1.455       .  A
C90          C91   1.404       .  A
C90        Br758   1.940       .  S
C91          C92   1.393       .  A
C91        Br762   1.936       .  S
C92          C95   1.488       .  S
C92          C93   1.400       .  A
C93          C94   1.422       .  A
C93        Br101   1.939       .  S
C94        Br433   1.937       .  S
C95          C96   1.406       .  A
C95         C100   1.404       .  A
C96          C97   1.411       .  A
C96        Br107   1.933       .  S
C97          C98   1.423       .  A
C97        Br103   1.934       .  S
C98          C99   1.429       .  A
C99         C100   1.408       .  A
C99        Br108   1.940       .  S
C100       Br104   1.933       .  S
Br102       C746   1.940       .  S
Br105       C422   1.937       .  S
Br106       C747   1.936   1_455  S
C109        C110   1.413       .  A
C109        C114   1.417       .  A
C110        C111   1.407       .  A
C110       Br122   1.929       .  S
C111        C112   1.409       .  A
C111       Br126   1.930       .  S
C112        C115   1.487       .  S
C112        C113   1.408       .  A
C113        C114   1.407       .  A
C113       Br121   1.927       .  S
C114       Br125   1.935       .  S
C115        C116   1.401       .  A
C115        C120   1.396       .  A
C116        C117   1.420       .  A
C116       Br127   1.932       .  S
C117        C118   1.455       .  A
C117       Br123   1.934       .  S
C118        C704   1.605       .  S
C118        C119   1.446       .  A
C119        C120   1.397       .  A
C119       Br128   1.939       .  S
C120       Br124   1.938       .  S
C129        C376   1.614   1_545  S
C129        C130   1.458       .  A
C129        C134   1.454       .  A
C130        C131   1.417       .  A
C130       Br470   1.926   1_545  S
C131        C132   1.395       .  A
C131       Br474   1.946       .  S
C132        C135   1.495       .  S
C132        C133   1.395       .  A
C133        C134   1.416       .  A
C133       Br141   1.936       .  S
C134       Br145   1.928       .  S
C135        C136   1.409       .  A
C135        C140   1.412       .  A
C136        C137   1.407       .  A
C136       Br147   1.931       .  S
C137        C138   1.412       .  A
C137       Br143   1.926       .  S
C138        C139   1.411       .  A
C139        C140   1.414       .  A
C139       Br148   1.928       .  S
C140       Br144   1.926       .  S
Br142       C458   1.927       .  S
Br146       C459   1.949       .  S
C149       C1032   1.611   1_545  S
C149        C150   1.455       .  A
C149        C154   1.457       .  A
C150        C151   1.416       .  A
C150       Br818   1.938       .  S
C151        C152   1.397       .  A
C151       Br166   1.940       .  S
C152        C155   1.495       .  S
C152        C153   1.396       .  A
C153        C154   1.417       .  A
C153       Br161   1.941       .  S
C154       Br165   1.940       .  S
C155        C156   1.411       .  A
C155        C160   1.406       .  A
C156        C157   1.414       .  A
C156       Br167   1.926   1_545  S
C157        C158   1.417       .  A
C157       Br163   1.930       .  S
C158        C159   1.416       .  A
C159        C160   1.407       .  A
C159       Br168   1.925       .  S
C160       Br164   1.933       .  S
Br162       C806   1.938   1_455  S
C169        C174   1.459   1_655  A
C169       C1154   1.456       .  A
C170        C171   1.415       .  A
C170       C1153   1.454   1_545  A
C170       Br182   1.925       .  S
C171       C1156   1.396   1_545  A
C171       Br186   1.941       .  S
C172        C175   1.502       .  S
C172        C173   1.399   1_655  A
C172       C1155   1.397       .  A
C173        C174   1.418       .  A
C173       Br181   1.942       .  S
C174       Br185   1.947       .  S
C175        C504   1.399   1_655  A
C175        C836   1.399       .  A
C176        C177   1.414       .  A
C176        C503   1.397   1_445  A
C176       Br187   1.938       .  S
C177        C506   1.457   1_545  A
C177       Br183   1.944       .  S
C178        C505   1.455       .  A
C178        C835   1.455   1_455  A
C179        C180   1.416       .  A
C179        C834   1.455       .  A
C179       Br188   1.931       .  S
C180        C831   1.399       .  A
C180       Br184   1.941       .  S
C189        C518   1.447       .  A
C189        C850   1.457   1_455  A
C190        C191   1.413       .  A
C190        C517   1.447       .  A
C190       Br202   1.925       .  S
C191        C520   1.397       .  A
C191       Br206   1.940       .  S
C192        C195   1.488   1_556  S
C192        C519   1.396       .  A
C192        C849   1.398   1_455  A
C193        C194   1.413       .  A
C193        C848   1.398       .  A
C193       Br201   1.948       .  S
C194        C845   1.457       .  A
C194       Br205   1.945       .  S
C195        C196   1.396       .  A
C195       C1184   1.398   1_455  A
C196        C197   1.409       .  A
C196       Br207   1.938       .  S
C197        C198   1.448   1_455  A
C197       Br203   1.937       .  S
C198       C1183   1.443       .  A
C199        C200   1.411       .  A
C199       C1182   1.444   1_545  A
C199       Br208   1.911       .  S
C200       C1179   1.397       .  A
C200       Br204   1.942       .  S
C209        C210   1.455       .  A
C209        C214   1.462   1_455  A
C210        C211   1.416       .  A
C210       Br222   1.927       .  S
C211        C212   1.394       .  A
C211       Br226   1.936       .  S
C212        C215   1.494       .  S
C212        C213   1.392       .  A
C213        C214   1.417   1_455  A
C213       Br221   1.947   1_455  S
C214       Br881   1.920       .  S
C215        C216   1.408       .  A
C215        C220   1.412       .  A
C216        C217   1.405       .  A
C216       Br227   1.932       .  S
C217        C218   1.412       .  A
C217       Br223   1.920       .  S
C218        C219   1.411       .  A
C219        C220   1.414       .  A
C219       Br228   1.925       .  S
C220       Br224   1.926       .  S
Br225       C870   1.920       .  S
C229        C680   1.611       .  S
C229        C230   1.459       .  A
C229        C234   1.446       .  A
C230        C231   1.404       .  A
C230       Br570   1.940       .  S
C231        C232   1.390       .  A
C231       Br574   1.948       .  S
C232        C235   1.482       .  S
C232        C233   1.402       .  A
C233        C234   1.420       .  A
C233       Br241   1.937       .  S
C234       Br245   1.932       .  S
C235        C236   1.409       .  A
C235        C240   1.409       .  A
C236        C237   1.408       .  A
C236       Br247   1.930       .  S
C237        C238   1.412       .  A
C237       Br243   1.924       .  S
C238        C239   1.415       .  A
C239        C240   1.399       .  A
C239       Br248   1.931       .  S
C240       Br244   1.934       .  S
Br242       C558   1.937       .  S
Br246       C559   1.947   1_545  S
C249        C352   1.610   1_445  S
C249        C250   1.455       .  A
C249        C254   1.458       .  A
C250        C251   1.415       .  A
C250       Br262   1.943   1_455  S
C251        C252   1.400       .  A
C251       Br266   1.941       .  S
C252        C255   1.497       .  S
C252        C253   1.398       .  A
C253        C254   1.421       .  A
C253       Br261   1.942       .  S
C254       Br921   1.938       .  S
C255        C256   1.408       .  A
C255        C260   1.412       .  A
C256        C257   1.410       .  A
C256       Br267   1.932       .  S
C257        C258   1.420       .  A
C257       Br263   1.933       .  S
C258        C259   1.413       .  A
C259        C260   1.407       .  A
C259       Br268   1.936       .  S
C260       Br264   1.923       .  S
Br265       C910   1.938       .  S
C269        C270   1.451       .  A
C269        C274   1.452       .  A
C270        C271   1.396       .  A
C270       Br938   1.944   1_455  S
C271        C272   1.391       .  A
C271       Br286   1.936       .  S
C272        C275   1.491       .  S
C272        C273   1.403       .  A
C273        C274   1.425       .  A
C273       Br281   1.942       .  S
C274       Br285   1.925       .  S
C275        C276   1.408       .  A
C275        C280   1.415       .  A
C276        C277   1.409       .  A
C276       Br287   1.932       .  S
C277        C278   1.418       .  A
C277       Br283   1.933       .  S
C278        C279   1.407       .  A
C279        C280   1.407       .  A
C279       Br288   1.927       .  S
C280       Br284   1.933       .  S
Br282       C926   1.944       .  S
C289        C679   1.585       .  S
C289        C290   1.446       .  A
C289        C294   1.455       .  A
C290        C291   1.410       .  A
C290       Br302   1.941       .  S
C291        C292   1.398       .  A
C291       Br306   1.938       .  S
C292        C295   1.482       .  S
C292        C293   1.399       .  A
C293        C294   1.409       .  A
C293       Br301   1.938       .  S
C294       Br633   1.956       .  S
C295        C296   1.406       .  A
C295        C300   1.407       .  A
C296        C297   1.403       .  A
C296       Br307   1.926       .  S
C297        C298   1.415       .  A
C297       Br303   1.934       .  S
C298        C299   1.419       .  A
C299        C300   1.407       .  A
C299       Br308   1.933       .  S
C300       Br304   1.932       .  S
Br305       C622   1.956   1_545  S
C309        C310   1.417       .  A
C309        C314   1.411       .  A
C310        C311   1.405       .  A
C310       Br322   1.929       .  S
C311        C312   1.406       .  A
C311       Br326   1.933       .  S
C312        C315   1.484       .  S
C312        C313   1.411       .  A
C313        C314   1.409       .  A
C313       Br321   1.930       .  S
C314       Br325   1.926       .  S
C315        C316   1.398       .  A
C315        C320   1.400       .  A
C316        C317   1.402       .  A
C316       Br327   1.927       .  S
C317        C318   1.420       .  A
C317       Br323   1.931       .  S
C318        C351   1.620   1_445  S
C318        C319   1.462   1_455  A
C319        C320   1.416   1_655  A
C319       Br984   1.947       .  S
C320       Br980   1.946   1_455  S
Br324       C976   1.946       .  S
Br328       C975   1.947       .  S
O329       Cr347   1.995       .  S
O329        C337   1.262       .  A
O330       Cr347   1.972       .  S
O330        C331   1.259       .  A
C331        O332   1.270       .  A
C331        C586   1.485       .  S
O332       Cr348   2.017       .  S
O333       Cr348   1.992       .  S
O333        C334   1.262       .  A
C334        O335   1.267       .  A
C334        C546   1.487       .  S
O335       Cr349   2.016       .  S
O336       Cr349   1.979       .  S
O336        C337   1.259       .  A
C337        C566   1.483       .  S
O338       Cr347   1.975       .  S
O338        C346   1.260       .  A
O339       Cr347   2.001       .  S
O339        C340   1.262       .  A
C340        O341   1.264       .  A
C340        C637   1.489       .  S
O341       Cr348   1.999       .  S
O342       Cr348   2.019       .  S
O342        C343   1.269       .  A
C343        O344   1.255       .  A
C343        C606   1.481       .  S
O344       Cr349   1.968       .  S
O345       Cr349   2.010       .  S
O345        C346   1.268       .  A
C346        C626   1.482       .  S
Cr347       O350   1.768       .  S
Cr348       O350   1.771       .  S
Cr349       O350   1.772       .  S
C351        C526   1.596       .  S
C351        C597   1.618   1_655  S
C351       C1273   1.584       .  S
C352        C497   1.612       .  S
C352        C537   1.624   1_655  S
C352       C1213   1.614       .  S
O353       Cr371   2.017       .  S
O353        C361   1.269       .  A
O354       Cr371   1.987       .  S
O354        C355   1.259       .  A
C355        O356   1.265       .  A
C355        C466   1.486       .  S
O356       Cr372   2.017       .  S
O357       Cr372   1.995       .  S
O357        C358   1.263       .  A
C358        O359   1.266       .  A
C358        C486   1.493       .  S
O359       Cr373   2.010       .  S
O360       Cr373   1.969       .  S
O360        C361   1.258       .  A
C361        C437   1.482       .  S
O362       Cr371   1.991       .  S
O362        C370   1.263       .  A
O363       Cr371   2.026       .  S
O363        C364   1.271       .  A
C364        O365   1.257       .  A
C364        C406   1.491       .  S
O365       Cr372   1.969       .  S
O366       Cr372   2.002       .  S
O366        C367   1.266       .  A
C367        O368   1.261       .  A
C367        C426   1.506       .  S
O368       Cr373   1.988       .  S
O369       Cr373   2.017       .  S
O369        C370   1.266       .  A
C370        C377   1.497       .  S
Cr371       O374   1.776       .  S
Cr372       O374   1.767       .  S
Cr373       O374   1.772       .  S
C375       C1042   1.616   1_445  S
C375        C745   1.627   1_455  S
C375        C517   1.597       .  S
C376       C1102   1.607   1_455  S
C376        C805   1.611   1_465  S
C376        C506   1.608       .  S
C377        C378   1.419       .  A
C377        C382   1.415       .  A
C378        C379   1.411       .  A
C378       Br390   1.926       .  S
C379        C380   1.406       .  A
C379       Br394   1.931       .  S
C380        C383   1.497       .  S
C380        C381   1.412       .  A
C381        C382   1.414       .  A
C381       Br389   1.930       .  S
C382       Br393   1.929       .  S
C383        C384   1.395       .  A
C383        C388   1.397       .  A
C384        C385   1.414       .  A
C384      Br1051   1.937       .  S
C385        C386   1.449       .  A
C385      Br1047   1.922       .  S
C386       C1031   1.616   1_565  S
C386        C387   1.452       .  A
C387        C388   1.418       .  A
C387       Br396   1.913       .  S
C388       Br392   1.941       .  S
Br391      C1041   1.922   1_455  S
Br395      C1040   1.937   1_455  S
C397        C398   1.456       .  A
C397        C402   1.464       .  A
C398        C399   1.413       .  A
C399        C400   1.398       .  A
C399       Br414   1.944       .  S
C400        C403   1.495       .  S
C400        C401   1.397       .  A
C401        C402   1.422       .  A
C401       Br409   1.946       .  S
C402       Br413   1.948       .  S
C403        C404   1.408       .  A
C403        C408   1.411       .  A
C404        C405   1.407       .  A
C404       Br415   1.934       .  S
C405        C406   1.420       .  A
C405       Br411   1.936       .  S
C406        C407   1.415       .  A
C407        C408   1.411       .  A
C407       Br416   1.930       .  S
C408       Br412   1.929       .  S
C417        C703   1.628       .  S
C417        C418   1.446       .  A
C417        C422   1.455       .  A
C418        C419   1.403       .  A
C418      Br1086   1.939       .  S
C419        C420   1.393       .  A
C419      Br1090   1.934       .  S
C420        C423   1.491       .  S
C420        C421   1.401       .  A
C421        C422   1.424       .  A
C421       Br429   1.938       .  S
C423        C424   1.407       .  A
C423        C428   1.405       .  A
C424        C425   1.412       .  A
C424       Br435   1.932       .  S
C425        C426   1.424       .  A
C425       Br431   1.932       .  S
C426        C427   1.427       .  A
C427        C428   1.408       .  A
C427       Br436   1.939       .  S
C428       Br432   1.931       .  S
Br430      C1074   1.939       .  S
Br434      C1075   1.934   1_455  S
C437        C438   1.413       .  A
C437        C442   1.416       .  A
C438        C439   1.407       .  A
C438       Br450   1.929       .  S
C439        C440   1.409       .  A
C439       Br454   1.931       .  S
C440        C443   1.487       .  S
C440        C441   1.408       .  A
C441        C442   1.406       .  A
C441       Br449   1.926       .  S
C442       Br453   1.935       .  S
C443        C444   1.400       .  A
C443        C448   1.396       .  A
C444        C445   1.419       .  A
C444       Br455   1.932       .  S
C445        C446   1.455       .  A
C445       Br451   1.934       .  S
C446       C1032   1.607       .  S
C446        C447   1.448       .  A
C447        C448   1.398       .  A
C447       Br456   1.941       .  S
C448       Br452   1.938       .  S
C457        C458   1.461       .  A
C457        C462   1.454       .  A
C458        C459   1.419       .  A
C459        C460   1.395       .  A
C460        C463   1.497       .  S
C460        C461   1.395       .  A
C461        C462   1.418       .  A
C461       Br469   1.936       .  S
C462       Br473   1.930       .  S
C463        C464   1.410       .  A
C463        C468   1.412       .  A
C464        C465   1.408       .  A
C464       Br475   1.930       .  S
C465        C466   1.412       .  A
C465       Br471   1.926       .  S
C466        C467   1.411       .  A
C467        C468   1.414       .  A
C467       Br476   1.928       .  S
C468       Br472   1.926       .  S
C477        C704   1.612       .  S
C477        C478   1.456       .  A
C477        C482   1.457       .  A
C478        C479   1.416       .  A
C478      Br1146   1.938       .  S
C479        C480   1.397       .  A
C479       Br494   1.941       .  S
C480        C483   1.494       .  S
C480        C481   1.396       .  A
C481        C482   1.416       .  A
C481       Br489   1.940       .  S
C482       Br493   1.939       .  S
C483        C484   1.411       .  A
C483        C488   1.406       .  A
C484        C485   1.413       .  A
C484       Br495   1.925       .  S
C485        C486   1.415       .  A
C485       Br491   1.929       .  S
C486        C487   1.415       .  A
C487        C488   1.407       .  A
C487       Br496   1.923       .  S
C488       Br492   1.932       .  S
Br490      C1134   1.938   1_455  S
C497        C826   1.454   1_565  A
C497        C502   1.458   1_655  A
C498        C825   1.456       .  A
C498        C499   1.418       .  A
C498       Br510   1.925       .  S
C499        C828   1.397       .  A
C499       Br514   1.941       .  S
C500        C503   1.495       .  S
C500        C827   1.396   1_565  A
C500        C501   1.397   1_655  A
C501        C502   1.416       .  A
C501       Br509   1.942       .  S
C502       Br513   1.946       .  S
C503       C1164   1.397       .  A
C504        C505   1.417       .  A
C504       Br515   1.937       .  S
C505       Br511   1.942       .  S
C506       C1163   1.454   1_455  A
C507       C1162   1.454       .  A
C507        C508   1.414       .  A
C507       Br516   1.931       .  S
C508       C1159   1.397       .  A
C508       Br512   1.941       .  S
C517       C1178   1.457   1_445  A
C518        C519   1.412       .  A
C518       Br530   1.925       .  S
C519       Br534   1.938       .  S
C520        C523   1.488   1_556  S
C520       C1177   1.398   1_445  A
C521       C1176   1.398   1_565  A
C521        C522   1.413       .  A
C521       Br529   1.947       .  S
C522       C1173   1.457   1_565  A
C522       Br533   1.946       .  S
C523        C524   1.396   1_545  A
C523        C856   1.397   1_455  A
C524        C525   1.410       .  A
C524       Br535   1.938       .  S
C525        C526   1.448   1_455  A
C525       Br531   1.937       .  S
C526        C855   1.444   1_565  A
C527        C854   1.443       .  A
C527        C528   1.411       .  A
C527       Br536   1.911       .  S
C528        C851   1.398       .  A
C528       Br532   1.940       .  S
C537        C538   1.455       .  A
C537        C542   1.463   1_455  A
C538        C539   1.415       .  A
C538       Br550   1.926   1_565  S
C539        C540   1.393       .  A
C539       Br554   1.935       .  S
C540        C543   1.494       .  S
C540        C541   1.392       .  A
C541        C542   1.419   1_455  A
C541       Br549   1.949   1_455  S
C542      Br1209   1.913       .  S
C543        C544   1.408       .  A
C543        C548   1.412       .  A
C544        C545   1.405       .  A
C544       Br555   1.932       .  S
C545        C546   1.410       .  A
C545       Br551   1.921       .  S
C546        C547   1.411       .  A
C547        C548   1.414       .  A
C547       Br556   1.925       .  S
C548       Br552   1.927       .  S
Br553      C1198   1.913       .  S
C557       C1008   1.614       .  S
C557        C558   1.457   1_565  A
C557        C562   1.449       .  A
C558        C559   1.402   1_545  A
C559        C560   1.390       .  A
C560        C563   1.479       .  S
C560        C561   1.400       .  A
C561        C562   1.420       .  A
C561       Br569   1.937       .  S
C562       Br573   1.935       .  S
C563        C564   1.408       .  A
C563        C568   1.406       .  A
C564        C565   1.408       .  A
C564       Br575   1.931       .  S
C565        C566   1.415       .  A
C565       Br571   1.923       .  S
C566        C567   1.416       .  A
C567        C568   1.399       .  A
C567       Br576   1.930       .  S
C568       Br572   1.934       .  S
C577        C578   1.456       .  A
C577        C582   1.458       .  A
C578        C579   1.413       .  A
C578       Br590   1.938   1_455  S
C579        C580   1.398       .  A
C579       Br594   1.943       .  S
C580        C583   1.493       .  S
C580        C581   1.398       .  A
C581        C582   1.421       .  A
C581       Br589   1.942       .  S
C582      Br1249   1.936       .  S
C583        C584   1.408       .  A
C583        C588   1.412       .  A
C584        C585   1.409       .  A
C584       Br595   1.933       .  S
C585        C586   1.419       .  A
C585       Br591   1.934       .  S
C586        C587   1.412       .  A
C587        C588   1.406       .  A
C587       Br596   1.936       .  S
C588       Br592   1.923       .  S
Br593      C1238   1.936       .  S
C597        C598   1.450       .  A
C597        C602   1.451       .  A
C598        C599   1.397       .  A
C598      Br1266   1.943   1_455  S
C599        C600   1.392       .  A
C599       Br614   1.937   1_455  S
C600        C603   1.490       .  S
C600        C601   1.403       .  A
C601        C602   1.424       .  A
C601       Br609   1.942   1_565  S
C602       Br613   1.926   1_565  S
C603        C604   1.408       .  A
C603        C608   1.414       .  A
C604        C605   1.409       .  A
C604       Br615   1.932   1_565  S
C605        C606   1.417       .  A
C605       Br611   1.932       .  S
C606        C607   1.407       .  A
C607        C608   1.406       .  A
C607       Br616   1.925       .  S
C608       Br612   1.933       .  S
Br610      C1254   1.943       .  S
C617       C1007   1.584       .  S
C617        C618   1.446       .  A
C617        C622   1.455       .  A
C618        C619   1.411       .  A
C618       Br630   1.942       .  S
C619        C620   1.399       .  A
C619       Br634   1.938       .  S
C620        C623   1.482       .  S
C620        C621   1.399       .  A
C621        C622   1.408       .  A
C621       Br629   1.939       .  S
C623        C624   1.406       .  A
C623        C628   1.407       .  A
C624        C625   1.403       .  A
C624       Br635   1.928       .  S
C625        C626   1.414       .  A
C625       Br631   1.933       .  S
C626        C627   1.419       .  A
C627        C628   1.407       .  A
C627       Br636   1.935       .  S
C628       Br632   1.933       .  S
C637        C638   1.417       .  A
C637        C642   1.411       .  A
C638        C639   1.407       .  A
C638       Br650   1.927       .  S
C639        C640   1.407       .  A
C639       Br654   1.932       .  S
C640        C643   1.489       .  S
C640        C641   1.412       .  A
C641        C642   1.410       .  A
C641       Br649   1.930       .  S
C642       Br653   1.925       .  S
C643        C644   1.400       .  A
C643        C648   1.401       .  A
C644        C645   1.405       .  A
C644       Br655   1.927       .  S
C645        C646   1.422       .  A
C645       Br651   1.931       .  S
C646        C647   1.460   1_455  A
C647        C648   1.416   1_655  A
C647      Br1312   1.944       .  S
C648      Br1308   1.944   1_455  S
Br652      C1304   1.944       .  S
Br656      C1303   1.944       .  S
O657       Cr675   1.995       .  S
O657        C665   1.262       .  A
O658       Cr675   1.975       .  S
O658        C659   1.260       .  A
C659        O660   1.271       .  A
C659        C914   1.489       .  S
O660       Cr676   2.019       .  S
O661       Cr676   1.992       .  S
O661        C662   1.263       .  A
C662        O663   1.267       .  A
C662        C874   1.488       .  S
O663       Cr677   2.016       .  S
O664       Cr677   1.979       .  S
O664        C665   1.259       .  A
C665        C894   1.479       .  S
O666       Cr675   1.978       .  S
O666        C674   1.259       .  A
O667       Cr675   1.994       .  S
O667        C668   1.261       .  A
C668        O669   1.264       .  A
C668        C965   1.484       .  S
O669       Cr676   1.997       .  S
O670       Cr676   2.021       .  S
O670        C671   1.269       .  A
C671        O672   1.255       .  A
C671        C934   1.482       .  S
O672       Cr677   1.967       .  S
O673       Cr677   2.007       .  S
O673        C674   1.268       .  A
C674        C954   1.484       .  S
Cr675       O678   1.768       .  S
Cr676       O678   1.769       .  S
Cr677       O678   1.770       .  S
C679        C854   1.596       .  S
C679        C925   1.619       .  S
C679       C1302   1.624       .  S
C680        C825   1.619       .  S
C680        C865   1.621       .  S
C680       C1233   1.609       .  S
O681       Cr699   2.019       .  S
O681        C689   1.270       .  A
O682       Cr699   1.988       .  S
O682        C683   1.259       .  A
C683        O684   1.264       .  A
C683        C794   1.484       .  S
O684       Cr700   2.014       .  S
O685       Cr700   1.996       .  S
O685        C686   1.263       .  A
C686        O687   1.266       .  A
C686        C814   1.496       .  S
O687       Cr701   2.009       .  S
O688       Cr701   1.968       .  S
O688        C689   1.257       .  A
C689        C765   1.483       .  S
O690       Cr699   1.991       .  S
O690        C698   1.262       .  A
O691       Cr699   2.026       .  S
O691        C692   1.271       .  A
C692        O693   1.257       .  A
C692        C734   1.491       .  S
O693       Cr700   1.968       .  S
O694       Cr700   2.000       .  S
O694        C695   1.263       .  A
C695        O696   1.264       .  A
C695        C754   1.502       .  S
O696       Cr701   1.983       .  S
O697       Cr701   2.017       .  S
O697        C698   1.267       .  A
C698        C705   1.496       .  S
Cr699       O702   1.776       .  S
Cr700       O702   1.766       .  S
Cr701       O702   1.771       .  S
C703       C1053   1.618       .  S
C703        C845   1.596       .  S
C704       C1113   1.618       .  S
C704        C834   1.611       .  S
C705        C706   1.418       .  A
C705        C710   1.415       .  A
C706        C707   1.409       .  A
C706       Br718   1.925       .  S
C707        C708   1.405       .  A
C707       Br722   1.931       .  S
C708        C711   1.496       .  S
C708        C709   1.412       .  A
C709        C710   1.415       .  A
C709       Br717   1.930       .  S
C710       Br721   1.929       .  S
C711        C712   1.395       .  A
C711        C716   1.396       .  A
C712        C713   1.415       .  A
C713        C714   1.450       .  A
C714        C715   1.452       .  A
C715        C716   1.418       .  A
C715       Br724   1.913       .  S
C716       Br720   1.942       .  S
C725       C1031   1.617       .  S
C725        C726   1.457       .  A
C725        C730   1.463       .  A
C726        C727   1.413       .  A
C726      Br1066   1.946       .  S
C727        C728   1.398       .  A
C727       Br742   1.945       .  S
C728        C731   1.494       .  S
C728        C729   1.397       .  A
C729        C730   1.422       .  A
C729       Br737   1.946       .  S
C730       Br741   1.947       .  S
C731        C732   1.408       .  A
C731        C736   1.412       .  A
C732        C733   1.407       .  A
C732       Br743   1.934   1_545  S
C733        C734   1.421       .  A
C733       Br739   1.936       .  S
C734        C735   1.415       .  A
C735        C736   1.410       .  A
C735       Br744   1.931       .  S
C736       Br740   1.929       .  S
Br738      C1054   1.946       .  S
C745        C746   1.448   1_655  A
C745        C750   1.455       .  A
C746        C747   1.404   1_455  A
C747        C748   1.393       .  A
C748        C751   1.488       .  S
C748        C749   1.400       .  A
C749        C750   1.422       .  A
C749       Br757   1.939       .  S
C750      Br1089   1.937       .  S
C751        C752   1.406       .  A
C751        C756   1.404       .  A
C752        C753   1.411       .  A
C752       Br763   1.933       .  S
C753        C754   1.422       .  A
C753       Br759   1.934       .  S
C754        C755   1.429       .  A
C755        C756   1.408       .  A
C755       Br764   1.940       .  S
C756       Br760   1.933       .  S
Br761      C1078   1.937       .  S
C765        C766   1.413       .  A
C765        C770   1.417       .  A
C766        C767   1.407       .  A
C766       Br778   1.929       .  S
C767        C768   1.409       .  A
C767       Br782   1.930       .  S
C768        C771   1.487       .  S
C768        C769   1.408       .  A
C769        C770   1.407       .  A
C769       Br777   1.927   1_655  S
C770       Br781   1.935       .  S
C771        C772   1.401       .  A
C771        C776   1.396       .  A
C772        C773   1.420       .  A
C772       Br783   1.932       .  S
C773        C774   1.455       .  A
C773       Br779   1.934   1_655  S
C774        C775   1.446       .  A
C775        C776   1.397       .  A
C775       Br784   1.939       .  S
C776       Br780   1.938       .  S
C785       C1032   1.614   1_545  S
C785        C786   1.458       .  A
C785        C790   1.454       .  A
C786        C787   1.417       .  A
C786      Br1126   1.926   1_545  S
C787        C788   1.395       .  A
C787      Br1130   1.946       .  S
C788        C791   1.495       .  S
C788        C789   1.395       .  A
C789        C790   1.416       .  A
C789       Br797   1.936       .  S
C790       Br801   1.928       .  S
C791        C792   1.409       .  A
C791        C796   1.412       .  A
C792        C793   1.407       .  A
C792       Br803   1.931       .  S
C793        C794   1.412       .  A
C793       Br799   1.926       .  S
C794        C795   1.411       .  A
C795        C796   1.414       .  A
C795       Br804   1.928       .  S
C796       Br800   1.926       .  S
Br798      C1114   1.927       .  S
Br802      C1115   1.949       .  S
C805        C806   1.455       .  A
C805        C810   1.457       .  A
C806        C807   1.416       .  A
C807        C808   1.397       .  A
C807       Br822   1.940       .  S
C808        C811   1.495       .  S
C808        C809   1.396       .  A
C809        C810   1.417       .  A
C809       Br817   1.941       .  S
C810       Br821   1.940       .  S
C811        C812   1.411       .  A
C811        C816   1.406       .  A
C812        C813   1.414       .  A
C812       Br823   1.926   1_545  S
C813        C814   1.417       .  A
C813       Br819   1.930       .  S
C814        C815   1.416       .  A
C815        C816   1.407       .  A
C815       Br824   1.925       .  S
C816       Br820   1.933       .  S
C825        C830   1.459       .  A
C826        C827   1.415       .  A
C826       Br838   1.925       .  S
C827       Br842   1.941       .  S
C828        C831   1.502       .  S
C828        C829   1.399       .  A
C829        C830   1.418       .  A
C829       Br837   1.942       .  S
C830       Br841   1.947       .  S
C831       C1160   1.399       .  A
C832       C1159   1.397   1_545  A
C832        C833   1.414       .  A
C832       Br843   1.938       .  S
C833       C1162   1.457   1_545  A
C833       Br839   1.944       .  S
C834       C1161   1.455       .  A
C835        C836   1.416       .  A
C835       Br844   1.931       .  S
C836       Br840   1.941       .  S
C845       C1174   1.447       .  A
C846       C1173   1.447       .  A
C846        C847   1.413       .  A
C846       Br858   1.925       .  S
C847       C1176   1.397       .  A
C847       Br862   1.940       .  S
C848        C851   1.488   1_556  S
C848       C1175   1.396       .  A
C849        C850   1.413       .  A
C849       Br857   1.948       .  S
C850       Br861   1.945       .  S
C851        C852   1.396       .  A
C852        C853   1.409       .  A
C852       Br863   1.938       .  S
C853        C854   1.448       .  A
C853       Br859   1.937       .  S
C855        C856   1.411       .  A
C855       Br864   1.911       .  S
C856       Br860   1.942       .  S
C865        C866   1.455       .  A
C865        C870   1.462       .  A
C866        C867   1.416       .  A
C866       Br878   1.927       .  S
C867        C868   1.394       .  A
C867       Br882   1.936       .  S
C868        C871   1.494       .  S
C868        C869   1.392       .  A
C869        C870   1.417       .  A
C869       Br877   1.947       .  S
C871        C872   1.408       .  A
C871        C876   1.412       .  A
C872        C873   1.405       .  A
C872       Br883   1.932       .  S
C873        C874   1.412       .  A
C873       Br879   1.920       .  S
C874        C875   1.411       .  A
C875        C876   1.414       .  A
C875       Br884   1.925       .  S
C876       Br880   1.926       .  S
C885        C886   1.459       .  A
C885        C890   1.446       .  A
C886        C887   1.404       .  A
C886      Br1226   1.940       .  S
C887        C888   1.390       .  A
C887      Br1230   1.948       .  S
C888        C891   1.482       .  S
C888        C889   1.402       .  A
C889        C890   1.420       .  A
C889       Br897   1.937       .  S
C890       Br901   1.932       .  S
C891        C892   1.409       .  A
C891        C896   1.409       .  A
C892        C893   1.408       .  A
C892       Br903   1.930       .  S
C893        C894   1.412       .  A
C893       Br899   1.924       .  S
C894        C895   1.415       .  A
C895        C896   1.399       .  A
C895       Br904   1.931       .  S
C896       Br900   1.934       .  S
Br898      C1214   1.937       .  S
Br902      C1215   1.947   1_545  S
C905       C1008   1.610   1_545  S
C905        C906   1.455       .  A
C905        C910   1.458       .  A
C906        C907   1.415       .  A
C906       Br918   1.943       .  S
C907        C908   1.400       .  A
C907       Br922   1.941       .  S
C908        C911   1.497       .  S
C908        C909   1.398       .  A
C909        C910   1.421       .  A
C909       Br917   1.942       .  S
C911        C912   1.408       .  A
C911        C916   1.412       .  A
C912        C913   1.410       .  A
C912       Br923   1.932       .  S
C913        C914   1.420       .  A
C913       Br919   1.933       .  S
C914        C915   1.413       .  A
C915        C916   1.407       .  A
C915       Br924   1.936       .  S
C916       Br920   1.923       .  S
C925        C926   1.451       .  A
C925        C930   1.452       .  A
C926        C927   1.396       .  A
C927        C928   1.391       .  A
C927       Br942   1.936       .  S
C928        C931   1.491       .  S
C928        C929   1.403       .  A
C929        C930   1.425       .  A
C929       Br937   1.942       .  S
C930       Br941   1.925       .  S
C931        C932   1.408       .  A
C931        C936   1.415       .  A
C932        C933   1.409       .  A
C932       Br943   1.932       .  S
C933        C934   1.418       .  A
C933       Br939   1.933       .  S
C934        C935   1.407       .  A
C935        C936   1.407       .  A
C935       Br944   1.927       .  S
C936       Br940   1.933       .  S
C945        C946   1.446       .  A
C945        C950   1.455       .  A
C946        C947   1.410       .  A
C946       Br958   1.941       .  S
C947        C948   1.398       .  A
C947       Br962   1.938       .  S
C948        C951   1.482       .  S
C948        C949   1.399       .  A
C949        C950   1.409       .  A
C949       Br957   1.938       .  S
C950      Br1289   1.956       .  S
C951        C952   1.406       .  A
C951        C956   1.407       .  A
C952        C953   1.403       .  A
C952       Br963   1.926       .  S
C953        C954   1.415       .  A
C953       Br959   1.934       .  S
C954        C955   1.419       .  A
C955        C956   1.407       .  A
C955       Br964   1.933       .  S
C956       Br960   1.932       .  S
Br961      C1278   1.956   1_545  S
C965        C966   1.417       .  A
C965        C970   1.411       .  A
C966        C967   1.405       .  A
C966       Br978   1.929       .  S
C967        C968   1.406       .  A
C967       Br982   1.933       .  S
C968        C971   1.484       .  S
C968        C969   1.411       .  A
C969        C970   1.409       .  A
C969       Br977   1.930       .  S
C970       Br981   1.926       .  S
C971        C972   1.398       .  A
C971        C976   1.400       .  A
C972        C973   1.402       .  A
C972       Br983   1.927       .  S
C973        C974   1.420       .  A
C973       Br979   1.931       .  S
C974       C1007   1.620   1_545  S
C974        C975   1.462       .  A
C975        C976   1.416       .  A
O985      Cr1003   1.995       .  S
O985        C993   1.262       .  A
O986      Cr1003   1.972       .  S
O986        C987   1.259       .  A
C987        O988   1.270       .  A
C987       C1242   1.485       .  S
O988      Cr1004   2.017       .  S
O989      Cr1004   1.992       .  S
O989        C990   1.262       .  A
C990        O991   1.267       .  A
C990       C1202   1.487       .  S
O991      Cr1005   2.016       .  S
O992      Cr1005   1.979       .  S
O992        C993   1.259       .  A
C993       C1222   1.483       .  S
O994      Cr1003   1.975       .  S
O994       C1002   1.260       .  A
O995      Cr1003   2.001       .  S
O995        C996   1.262       .  A
C996        O997   1.264       .  A
C996       C1293   1.489       .  S
O997      Cr1004   1.999       .  S
O998      Cr1004   2.019       .  S
O998        C999   1.269       .  A
C999       O1000   1.255       .  A
C999       C1262   1.481       .  S
O1000     Cr1005   1.968       .  S
O1001     Cr1005   2.010       .  S
O1001      C1002   1.268       .  A
C1002      C1282   1.482       .  S
Cr1003     O1006   1.768       .  S
Cr1004     O1006   1.771       .  S
Cr1005     O1006   1.772       .  S
C1007      C1182   1.596       .  S
C1007      C1253   1.618       .  S
C1008      C1153   1.612       .  S
C1008      C1193   1.624       .  S
O1009     Cr1027   2.017       .  S
O1009      C1017   1.269       .  A
O1010     Cr1027   1.987       .  S
O1010      C1011   1.259       .  A
C1011      O1012   1.265       .  A
C1011      C1122   1.486       .  S
O1012     Cr1028   2.017       .  S
O1013     Cr1028   1.995       .  S
O1013      C1014   1.263       .  A
C1014      O1015   1.266       .  A
C1014      C1142   1.493       .  S
O1015     Cr1029   2.010       .  S
O1016     Cr1029   1.969       .  S
O1016      C1017   1.258       .  A
C1017      C1093   1.482       .  S
O1018     Cr1027   1.991       .  S
O1018      C1026   1.263       .  A
O1019     Cr1027   2.026       .  S
O1019      C1020   1.271       .  A
C1020      O1021   1.257       .  A
C1020      C1062   1.491       .  S
O1021     Cr1028   1.969       .  S
O1022     Cr1028   2.002       .  S
O1022      C1023   1.266       .  A
C1023      O1024   1.261       .  A
C1023      C1082   1.506       .  S
O1024     Cr1029   1.988       .  S
O1025     Cr1029   2.017       .  S
O1025      C1026   1.266       .  A
C1026      C1033   1.497       .  S
Cr1027     O1030   1.776       .  S
Cr1028     O1030   1.767       .  S
Cr1029     O1030   1.772       .  S
C1031      C1173   1.597       .  S
C1032      C1162   1.608       .  S
C1033      C1034   1.419       .  A
C1033      C1038   1.415       .  A
C1034      C1035   1.411       .  A
C1034     Br1046   1.926       .  S
C1035      C1036   1.406       .  A
C1035     Br1050   1.931       .  S
C1036      C1039   1.497       .  S
C1036      C1037   1.412       .  A
C1037      C1038   1.414       .  A
C1037     Br1045   1.930       .  S
C1038     Br1049   1.929       .  S
C1039      C1040   1.395       .  A
C1039      C1044   1.397       .  A
C1040      C1041   1.414       .  A
C1041      C1042   1.449       .  A
C1042      C1043   1.452       .  A
C1043      C1044   1.418       .  A
C1043     Br1052   1.913       .  S
C1044     Br1048   1.941       .  S
C1053      C1054   1.456       .  A
C1053      C1058   1.464       .  A
C1054      C1055   1.413       .  A
C1055      C1056   1.398       .  A
C1055     Br1070   1.944       .  S
C1056      C1059   1.495       .  S
C1056      C1057   1.397       .  A
C1057      C1058   1.422       .  A
C1057     Br1065   1.946       .  S
C1058     Br1069   1.948       .  S
C1059      C1060   1.408       .  A
C1059      C1064   1.411       .  A
C1060      C1061   1.407       .  A
C1060     Br1071   1.934       .  S
C1061      C1062   1.420       .  A
C1061     Br1067   1.936       .  S
C1062      C1063   1.415       .  A
C1063      C1064   1.411       .  A
C1063     Br1072   1.930       .  S
C1064     Br1068   1.929       .  S
C1073      C1074   1.446   1_655  A
C1073      C1078   1.455       .  A
C1074      C1075   1.403   1_455  A
C1075      C1076   1.393       .  A
C1076      C1079   1.491       .  S
C1076      C1077   1.401       .  A
C1077      C1078   1.424       .  A
C1077     Br1085   1.938       .  S
C1079      C1080   1.407       .  A
C1079      C1084   1.405       .  A
C1080      C1081   1.412       .  A
C1080     Br1091   1.932       .  S
C1081      C1082   1.424       .  A
C1081     Br1087   1.932       .  S
C1082      C1083   1.427       .  A
C1083      C1084   1.408       .  A
C1083     Br1092   1.939       .  S
C1084     Br1088   1.931       .  S
C1093      C1094   1.413       .  A
C1093      C1098   1.416       .  A
C1094      C1095   1.407       .  A
C1094     Br1106   1.929       .  S
C1095      C1096   1.409       .  A
C1095     Br1110   1.931       .  S
C1096      C1099   1.487       .  S
C1096      C1097   1.408       .  A
C1097      C1098   1.406       .  A
C1097     Br1105   1.926   1_655  S
C1098     Br1109   1.935       .  S
C1099      C1100   1.400       .  A
C1099      C1104   1.396       .  A
C1100      C1101   1.419       .  A
C1100     Br1111   1.932       .  S
C1101      C1102   1.455       .  A
C1101     Br1107   1.934   1_655  S
C1102      C1103   1.448       .  A
C1103      C1104   1.398       .  A
C1103     Br1112   1.941       .  S
C1104     Br1108   1.938       .  S
C1113      C1114   1.461       .  A
C1113      C1118   1.454       .  A
C1114      C1115   1.419       .  A
C1115      C1116   1.395       .  A
C1116      C1119   1.497       .  S
C1116      C1117   1.395       .  A
C1117      C1118   1.418       .  A
C1117     Br1125   1.936       .  S
C1118     Br1129   1.930       .  S
C1119      C1120   1.410       .  A
C1119      C1124   1.412       .  A
C1120      C1121   1.408       .  A
C1120     Br1131   1.930       .  S
C1121      C1122   1.412       .  A
C1121     Br1127   1.926       .  S
C1122      C1123   1.411       .  A
C1123      C1124   1.414       .  A
C1123     Br1132   1.928       .  S
C1124     Br1128   1.926       .  S
C1133      C1134   1.456       .  A
C1133      C1138   1.457       .  A
C1134      C1135   1.416       .  A
C1135      C1136   1.397       .  A
C1135     Br1150   1.941       .  S
C1136      C1139   1.494       .  S
C1136      C1137   1.396       .  A
C1137      C1138   1.416       .  A
C1137     Br1145   1.940       .  S
C1138     Br1149   1.939       .  S
C1139      C1140   1.411       .  A
C1139      C1144   1.406       .  A
C1140      C1141   1.413       .  A
C1140     Br1151   1.925       .  S
C1141      C1142   1.415       .  A
C1141     Br1147   1.929       .  S
C1142      C1143   1.415       .  A
C1143      C1144   1.407       .  A
C1143     Br1152   1.923       .  S
C1144     Br1148   1.932       .  S
C1153      C1158   1.458       .  A
C1154      C1155   1.418       .  A
C1154     Br1166   1.925       .  S
C1155     Br1170   1.941       .  S
C1156      C1159   1.495       .  S
C1156      C1157   1.397       .  A
C1157      C1158   1.416       .  A
C1157     Br1165   1.942       .  S
C1158     Br1169   1.946       .  S
C1160      C1161   1.417       .  A
C1160     Br1171   1.937       .  S
C1161     Br1167   1.942       .  S
C1163      C1164   1.414       .  A
C1163     Br1172   1.931       .  S
C1164     Br1168   1.941       .  S
C1174      C1175   1.412       .  A
C1174     Br1186   1.925       .  S
C1175     Br1190   1.938       .  S
C1176      C1179   1.488   1_556  S
C1177      C1178   1.413       .  A
C1177     Br1185   1.947       .  S
C1178     Br1189   1.946       .  S
C1179      C1180   1.396   1_545  A
C1180      C1181   1.410       .  A
C1180     Br1191   1.938       .  S
C1181      C1182   1.448       .  A
C1181     Br1187   1.937       .  S
C1183      C1184   1.411       .  A
C1183     Br1192   1.911       .  S
C1184     Br1188   1.940       .  S
C1193      C1194   1.455       .  A
C1193      C1198   1.463       .  A
C1194      C1195   1.415       .  A
C1194     Br1206   1.926   1_565  S
C1195      C1196   1.393       .  A
C1195     Br1210   1.935       .  S
C1196      C1199   1.494       .  S
C1196      C1197   1.392       .  A
C1197      C1198   1.419       .  A
C1197     Br1205   1.949       .  S
C1199      C1200   1.408       .  A
C1199      C1204   1.412       .  A
C1200      C1201   1.405       .  A
C1200     Br1211   1.932       .  S
C1201      C1202   1.410       .  A
C1201     Br1207   1.921       .  S
C1202      C1203   1.411       .  A
C1203      C1204   1.414       .  A
C1203     Br1212   1.925       .  S
C1204     Br1208   1.927       .  S
C1213      C1214   1.457   1_565  A
C1213      C1218   1.449       .  A
C1214      C1215   1.402   1_545  A
C1215      C1216   1.390       .  A
C1216      C1219   1.479       .  S
C1216      C1217   1.400       .  A
C1217      C1218   1.420       .  A
C1217     Br1225   1.937       .  S
C1218     Br1229   1.935       .  S
C1219      C1220   1.408       .  A
C1219      C1224   1.406       .  A
C1220      C1221   1.408       .  A
C1220     Br1231   1.931       .  S
C1221      C1222   1.415       .  A
C1221     Br1227   1.923       .  S
C1222      C1223   1.416       .  A
C1223      C1224   1.399       .  A
C1223     Br1232   1.930       .  S
C1224     Br1228   1.934       .  S
C1233      C1234   1.456       .  A
C1233      C1238   1.458       .  A
C1234      C1235   1.413       .  A
C1234     Br1246   1.938       .  S
C1235      C1236   1.398       .  A
C1235     Br1250   1.943       .  S
C1236      C1239   1.493       .  S
C1236      C1237   1.398       .  A
C1237      C1238   1.421       .  A
C1237     Br1245   1.942       .  S
C1239      C1240   1.408       .  A
C1239      C1244   1.412       .  A
C1240      C1241   1.409       .  A
C1240     Br1251   1.933       .  S
C1241      C1242   1.419       .  A
C1241     Br1247   1.934       .  S
C1242      C1243   1.412       .  A
C1243      C1244   1.406       .  A
C1243     Br1252   1.936       .  S
C1244     Br1248   1.923       .  S
C1253      C1254   1.450       .  A
C1253      C1258   1.451       .  A
C1254      C1255   1.397       .  A
C1255      C1256   1.392       .  A
C1255     Br1270   1.937       .  S
C1256      C1259   1.490       .  S
C1256      C1257   1.403       .  A
C1257      C1258   1.424       .  A
C1257     Br1265   1.942   1_565  S
C1258     Br1269   1.926   1_565  S
C1259      C1260   1.408       .  A
C1259      C1264   1.414       .  A
C1260      C1261   1.409       .  A
C1260     Br1271   1.932   1_565  S
C1261      C1262   1.417       .  A
C1261     Br1267   1.932       .  S
C1262      C1263   1.407       .  A
C1263      C1264   1.406       .  A
C1263     Br1272   1.925       .  S
C1264     Br1268   1.933       .  S
C1273      C1274   1.447       .  A
C1273      C1278   1.455       .  A
C1274      C1275   1.411       .  A
C1274     Br1286   1.942       .  S
C1275      C1276   1.399       .  A
C1275     Br1290   1.938       .  S
C1276      C1279   1.482       .  S
C1276      C1277   1.399       .  A
C1277      C1278   1.408       .  A
C1277     Br1285   1.939       .  S
C1279      C1280   1.406       .  A
C1279      C1284   1.407       .  A
C1280      C1281   1.403       .  A
C1280     Br1291   1.928       .  S
C1281      C1282   1.414       .  A
C1281     Br1287   1.933       .  S
C1282      C1283   1.419       .  A
C1283      C1284   1.407       .  A
C1283     Br1292   1.935       .  S
C1284     Br1288   1.933       .  S
C1293      C1294   1.417       .  A
C1293      C1298   1.411       .  A
C1294      C1295   1.407       .  A
C1294     Br1306   1.927       .  S
C1295      C1296   1.407       .  A
C1295     Br1310   1.932       .  S
C1296      C1299   1.489       .  S
C1296      C1297   1.412       .  A
C1297      C1298   1.410       .  A
C1297     Br1305   1.930       .  S
C1298     Br1309   1.925       .  S
C1299      C1300   1.400       .  A
C1299      C1304   1.401       .  A
C1300      C1301   1.405       .  A
C1300     Br1311   1.927       .  S
C1301      C1302   1.422       .  A
C1301     Br1307   1.931       .  S
C1302      C1303   1.460       .  A
C1303      C1304   1.416       .  A
