geometry optimzed in LAMMPS
_audit_creation_date              2020-12-01 
_audit_creation_method            'lammps2cif' 
_symmetry_space_group_name_H-M    'P1' 
_symmetry_Int_Tables_number       1 
_symmetry_cell_setting            triclinic 
loop_ 
_symmetry_equiv_pos_as_xyz 
  x,y,z 
_cell_length_a                    51.15594776 
_cell_length_b                    42.24854062759614 
_cell_length_c                    41.381566220376776 
_cell_angle_alpha                 90.0331827079138 
_cell_angle_beta                  90.74483250745789 
_cell_angle_gamma                 90.53808246803152 
loop_ 
_atom_site_label 
_atom_site_type_symbol 
_atom_site_fract_x 
_atom_site_fract_y 
_atom_site_fract_z 
_atom_site_charge 
O1          O  0.46059184  0.42003186  0.45066837    -0.75400
O2          O  0.43037862  0.45298829  0.47200031    -0.54400
C3          C  0.43679981  0.42869057  0.45526362     0.78300
O4          O  0.05095208  0.44467801  0.07166351    -0.60000
O5          O  0.08144107  0.46472640  0.03733744    -0.53100
C6          C  0.07477628  0.44862051  0.06233538     0.70300
O7          O  0.46294075  0.43954490  0.06857577    -0.74600
O8          O  0.43190718  0.46354577  0.03727960    -0.55200
C9          C  0.43899206  0.44525135  0.06065895     0.76300
O10         O  0.04952428  0.42700385  0.44261743    -0.59700
O11         O  0.08099270  0.45804263  0.46655530    -0.52900
C12         C  0.07355884  0.43497392  0.44819317     0.72900
Zr13       Zr  0.00569862  0.44373041  0.45771489     2.54700
O14         O  0.00581349  0.38676304  0.46651234    -0.80300
O15         O  0.00463795  0.43745241  0.39921101    -0.93700
Zr16       Zr  0.00623788  0.45805792  0.05417244     2.64700
O17         O  0.50789770  0.39623384  0.05369122    -0.98700
O18         O  0.00551522  0.47587439  0.11008890    -0.80700
O19         O  0.48109244  0.44779998  0.00388490    -0.84100
O20         O  0.03045001  0.44889376  0.00666033    -2.18800
O21         O  0.04928094  0.04915378  0.42829646    -0.67500
O22         O  0.07982202  0.02786238  0.46213052    -0.52100
C23         C  0.07311809  0.04458852  0.43755163     0.71300
O24         O  0.46041710  0.06429175  0.05184152    -0.60400
O25         O  0.42954557  0.03148520  0.02961473    -0.52400
C26         C  0.43645245  0.05588090  0.04646050     0.73100
O27         O  0.05153411  0.06555854  0.05463997    -0.71800
O28         O  0.08187342  0.03326768  0.03210418    -0.50500
C29         C  0.07523408  0.05707801  0.04955486     0.74500
O30         O  0.46366901  0.05002242  0.42999601    -0.67100
O31         O  0.43254111  0.02628695  0.46080868    -0.54300
C32         C  0.43973105  0.04480239  0.43784053     0.72800
Zr33       Zr  0.50752592  0.03293778  0.44537454     2.77500
O34         O  0.51078630  0.08770998  0.42741738    -0.97900
O35         O  0.50579129  0.01407784  0.38975666    -0.78700
Zr36       Zr  0.50453703  0.04588509  0.04050550     2.70100
O37         O  0.00900524  0.10572955  0.03426156    -0.79900
O38         O  0.50390670  0.05120489  0.09909865    -0.99000
Zr39       Zr  0.45642760  0.49509272  0.99852718     2.21500
Zr40       Zr  0.05562020  0.99783256  0.50136449     2.11100
O41         O  0.03014508  0.04430795  0.49280170    -2.47700
O42         O  0.48207527  0.04149150  0.49225006    -0.79700
O43         O  0.03195116  0.48991092  0.45139174    -0.71900
O44         O  0.47922312  0.99925179  0.04808399    -2.32900
O45         O  0.47991180  0.48387417  0.45356476    -2.29100
O46         O  0.03205042  0.00182801  0.04764539    -0.73700
H47         H  0.04129790  0.43048949  0.00958318     0.78300
H48         H  0.46804922  0.00159144  0.06660537     0.79400
H49         H  0.04120517  0.06273525  0.48998774     0.81600
H50         H  0.46838347  0.48075325  0.43512389     0.79200
H51         H  0.49474570  0.47555147  0.11455590     0.42300
H52         H  0.01857625  0.07086921  0.10481957     0.41200
H53         H  0.49068195  0.10741567  0.01808531     0.40900
H54         H  0.98962889  0.09960830  0.44568168     0.38800
H55         H  0.01627678  0.00129890  0.38720072     0.42000
H56         H  0.48964474  0.44417043  0.39667415     0.36800
H57         H  0.50050527  0.37187362  0.44990229     0.42900
H58         H  0.99168437  0.39270377  0.05675556     0.39300
H59         H  0.49807334  0.09930129  0.44069563     0.44200
H60         H  0.99906525  0.41519791  0.39567767     0.42900
H61         H  0.52516735  0.39034008  0.04513851     0.43100
H62         H  0.51733008  0.03624374  0.10698838     0.43400
C63         C  0.15417811  0.11447155  0.36823222     0.86300
C64         C  0.15091402  0.11314016  0.33120707    -0.53900
C65         C  0.16734989  0.13293329  0.31493531     0.09300
C66         C  0.18600207  0.15186721  0.33718731     0.20200
C67         C  0.18354136  0.10717522  0.37408123    -0.54600
C68         C  0.20004805  0.12682896  0.35757330     0.09400
C69         C  0.15170425  0.14963495  0.37707807    -0.54200
C70         C  0.16828074  0.16913446  0.36087113     0.09900
H71         H  0.13654769  0.09810499  0.31900354     0.14400
H72         H  0.19962303  0.16776386  0.32412458     0.00200
H73         H  0.19110099  0.08793832  0.38855175     0.14800
H74         H  0.13784795  0.15840170  0.39455473     0.14500
C75         C  0.15257320  0.35855970  0.38349606     0.86300
C76         C  0.14990480  0.32215883  0.38654201    -0.53900
C77         C  0.16682378  0.30558034  0.36800144     0.09300
C78         C  0.18550084  0.32655366  0.34861778     0.20200
C79         C  0.18161899  0.36499722  0.39221906    -0.54600
C80         C  0.19864947  0.34828241  0.37374554     0.09400
C81         C  0.15045342  0.36494882  0.34698940    -0.54200
C82         C  0.16772700  0.34842447  0.32873118     0.09900
H83         H  0.13697176  0.30984202  0.40282880     0.14400
H84         H  0.19940406  0.31280053  0.33390498     0.00200
H85         H  0.18814160  0.38095069  0.41130419     0.14800
H86         H  0.13651370  0.38139195  0.33652697     0.14500
C87         C  0.15496047  0.37922203  0.13606300     0.86300
C88         C  0.15286562  0.38078769  0.17328022    -0.53900
C89         C  0.16905793  0.36080383  0.18950983     0.09300
C90         C  0.18675453  0.34169254  0.16747532     0.20200
C91         C  0.18428447  0.38636825  0.13028086    -0.54600
C92         C  0.20087824  0.36626726  0.14635915     0.09400
C93         C  0.15150830  0.34380444  0.12767110    -0.54200
C94         C  0.16798414  0.32427752  0.14432986     0.09900
H95         H  0.14073001  0.39704195  0.18642904     0.14400
H96         H  0.20010339  0.32572689  0.18097602     0.00200
H97         H  0.19127720  0.40500286  0.11446135     0.14800
H98         H  0.13680220  0.33493029  0.11071139     0.14500
C99         C  0.15297518  0.13471221  0.11934988     0.86300
C100        C  0.15013250  0.17111892  0.11762027    -0.53900
C101        C  0.16725495  0.18748559  0.13688334     0.09300
C102        C  0.18588825  0.16627747  0.15642645     0.20200
C103        C  0.18197752  0.12925613  0.11134995    -0.54600
C104        C  0.19919111  0.14565236  0.13087036     0.09400
C105        C  0.15085696  0.12708219  0.15562305    -0.54200
C106        C  0.16817467  0.14322598  0.17508986     0.09900
H107        H  0.13626630  0.18383613  0.10279002     0.14400
H108        H  0.19996105  0.17977820  0.17189813     0.00200
H109        H  0.18828303  0.11328987  0.09248360     0.14800
H110        H  0.13638350  0.11068044  0.16505377     0.14500
C111        C  0.35879615  0.11211456  0.36447683     0.86300
C112        C  0.36194729  0.14741697  0.37244160    -0.53900
C113        C  0.34530336  0.16662869  0.35574510     0.09300
C114        C  0.32707396  0.14871267  0.33211063     0.20200
C115        C  0.32949190  0.10462446  0.36987024    -0.54600
C116        C  0.31291565  0.12399037  0.35295095     0.09400
C117        C  0.36145507  0.11004416  0.32739470    -0.54200
C118        C  0.34510170  0.12940063  0.31048523     0.09900
H119        H  0.37599817  0.15631484  0.39022053     0.14400
H120        H  0.31376961  0.16429405  0.31815583     0.00200
H121        H  0.32232014  0.08531772  0.38466805     0.14800
H122        H  0.37512399  0.09472086  0.31537936     0.14500
C123        C  0.35764437  0.13003125  0.11496261     0.86300
C124        C  0.36106477  0.12378097  0.15148271    -0.53900
C125        C  0.34562375  0.14178380  0.17079555     0.09300
C126        C  0.32763134  0.16405495  0.15171071     0.20200
C127        C  0.32790618  0.12470813  0.10865285    -0.54600
C128        C  0.31234703  0.14245466  0.12825091     0.09400
C129        C  0.36150727  0.16597363  0.11111685    -0.54200
C130        C  0.34592852  0.18353443  0.13039811     0.09900
H131        H  0.37483475  0.10671022  0.16116690     0.14400
H132        H  0.31476597  0.17878801  0.16682418     0.00200
H133        H  0.31948630  0.10832695  0.09121973     0.14800
H134        H  0.37552316  0.17662287  0.09478421     0.14500
C135        C  0.36041111  0.37397694  0.13417834     0.86300
C136        C  0.36272560  0.33897236  0.12464169    -0.53900
C137        C  0.34567088  0.31931312  0.13990347     0.09300
C138        C  0.32767713  0.33613803  0.16368586     0.20200
C139        C  0.33126646  0.38216478  0.12849424    -0.54600
C140        C  0.31413522  0.36222889  0.14385151     0.09400
C141        C  0.36315215  0.37406484  0.17150307    -0.54200
C142        C  0.34600891  0.35439027  0.18690496     0.09900
H143        H  0.37705123  0.33036340  0.10767244     0.14400
H144        H  0.31393620  0.31992243  0.17623400     0.00200
H145        H  0.32480762  0.40181170  0.11362103     0.14800
H146        H  0.37658013  0.38895396  0.18516966     0.14500
C147        C  0.35628353  0.35724593  0.38281618     0.86300
C148        C  0.35867516  0.36379474  0.34630098    -0.53900
C149        C  0.34235900  0.34585495  0.32709470     0.09300
C150        C  0.32465879  0.32331664  0.34637329     0.20200
C151        C  0.32705863  0.36239739  0.38969090    -0.54600
C152        C  0.31068797  0.34457186  0.37073903     0.09400
C153        C  0.35976797  0.32127147  0.38635562    -0.54200
C154        C  0.34372355  0.30340971  0.36684851     0.09900
H155        H  0.37255187  0.38075124  0.33651856     0.14400
H156        H  0.31087975  0.30941111  0.33094901     0.00200
H157        H  0.31930207  0.37820188  0.40767612     0.14800
H158        H  0.37372491  0.31102753  0.40321430     0.14500
C159        C  0.34235009  0.34770111  0.29107153    -0.05600
C160        C  0.34403823  0.37736821  0.27589950    -0.33000
C161        C  0.34479392  0.37987719  0.24217685     0.36200
C162        C  0.34428282  0.35238898  0.22276531    -0.06000
C163        C  0.34214358  0.32273654  0.23780923    -0.32900
C164        C  0.34120662  0.32021152  0.27164629     0.36100
H165        H  0.34450511  0.39881124  0.29027435     0.16500
O166        O  0.34570409  0.40942560  0.22849131    -0.60400
H167        H  0.34191918  0.30135078  0.22333004     0.16500
O168        O  0.34100252  0.29071231  0.28549794    -0.60500
H169        H  0.32344145  0.28166064  0.28054867     0.43500
H170        H  0.32752676  0.41373800  0.22124403     0.43400
C171        C  0.34614300  0.28459723  0.13591327    -0.05600
C172        C  0.36588260  0.26732343  0.15153006    -0.33000
C173        C  0.36650133  0.23431865  0.14897546     0.36200
C174        C  0.34686047  0.21828211  0.13127109    -0.06000
C175        C  0.32751137  0.23544574  0.11501818    -0.32900
C176        C  0.32720188  0.26862324  0.11687352     0.36100
H177        H  0.38071250  0.27950221  0.16589869     0.16500
O178        O  0.38584148  0.21786153  0.16468508    -0.60400
H179        H  0.31275022  0.22306527  0.10070461     0.16500
O180        O  0.30949862  0.28543404  0.09864586    -0.60500
H181        H  0.29234783  0.27452059  0.10083928     0.43500
H182        H  0.39901031  0.21337957  0.14794733     0.43400
C183        C  0.34564479  0.13901723  0.20664652    -0.05600
C184        C  0.34747348  0.10897017  0.22093805    -0.33000
C185        C  0.34737747  0.10537886  0.25456471     0.36200
C186        C  0.34515129  0.13214528  0.27467328    -0.06000
C187        C  0.34322908  0.16218831  0.26043667    -0.32900
C188        C  0.34352314  0.16581321  0.22676435     0.36100
H189        H  0.34857275  0.08799708  0.20596550     0.16500
O190        O  0.34817961  0.07546946  0.26742168    -0.60400
H191        H  0.34212020  0.18311855  0.27548687     0.16500
O192        O  0.34335536  0.19575091  0.21392935    -0.60500
H193        H  0.32578734  0.20428277  0.21852115     0.43500
H194        H  0.36619243  0.06791528  0.26364799     0.43400
C195        C  0.34490671  0.20150420  0.36000935    -0.05600
C196        C  0.36844432  0.21853510  0.36395819    -0.33000
C197        C  0.36849795  0.25159006  0.36690571     0.36200
C198        C  0.34469536  0.26825699  0.36519877    -0.06000
C199        C  0.32130593  0.25109454  0.36109068    -0.32900
C200        C  0.32117204  0.21811090  0.35948599     0.36100
H201        H  0.38695883  0.20629295  0.36407213     0.16500
O202        O  0.39200382  0.26739121  0.36927849    -0.60400
H203        H  0.30285138  0.26317469  0.35948428     0.16500
O204        O  0.29759145  0.20242963  0.35807192    -0.60500
H205        H  0.29376155  0.19653118  0.38073084     0.43500
H206        H  0.39882595  0.26271744  0.39130093     0.43400
C207        C  0.22807029  0.14301187  0.12899189    -0.05600
C208        C  0.24242070  0.13712252  0.15741113    -0.33000
C209        C  0.26977002  0.13610030  0.15717351     0.36200
C210        C  0.28331205  0.14085267  0.12811327    -0.06000
C211        C  0.26898929  0.14628448  0.09949752    -0.32900
C212        C  0.24152559  0.14744615  0.09979754     0.36100
H213        H  0.23235689  0.13331455  0.17998850     0.16500
O214        O  0.28310269  0.12944657  0.18531503    -0.60400
H215        H  0.27914920  0.15067019  0.07710671     0.16500
O216        O  0.22814086  0.15494031  0.07195191    -0.60500
H217        H  0.22725515  0.13502643  0.05927972     0.43500
H218        H  0.28186332  0.14880702  0.19875868     0.43400
C219        C  0.16712237  0.28931109  0.14198330    -0.05600
C220        C  0.17029158  0.27419013  0.11209581    -0.33000
C221        C  0.17069446  0.24100087  0.11013360     0.36200
C222        C  0.16760213  0.22258888  0.13825007    -0.06000
C223        C  0.16359629  0.23785789  0.16775439    -0.32900
C224        C  0.16390193  0.27086066  0.16994570     0.36100
H225        H  0.17301812  0.28813236  0.09041377     0.16500
O226        O  0.17490383  0.22676234  0.08088261    -0.60400
H227        H  0.15924773  0.22435504  0.18904162     0.16500
O228        O  0.15965611  0.28489134  0.19929750    -0.60500
H229        H  0.17621122  0.28238330  0.21174054     0.43500
H230        H  0.15782843  0.22740111  0.06928914     0.43400
C231        C  0.22978302  0.36641134  0.14295512    -0.05600
C232        C  0.24454938  0.39433846  0.14747188    -0.33000
C233        C  0.27208452  0.39374998  0.14697170     0.36200
C234        C  0.28513186  0.36488688  0.14214087    -0.06000
C235        C  0.27021241  0.33727517  0.13748676    -0.32900
C236        C  0.24292260  0.33785610  0.13733933     0.36100
H237        H  0.23476681  0.41640931  0.15244576     0.16500
O238        O  0.28600614  0.42091720  0.15367526    -0.60400
H239        H  0.27971522  0.31487507  0.13438520     0.16500
O240        O  0.22921583  0.31048223  0.13065432    -0.60500
H241        H  0.23221275  0.29642608  0.14950833     0.43500
H242        H  0.28469290  0.43390570  0.13378043     0.43400
C243        C  0.16855550  0.35099391  0.29300824    -0.05600
C244        C  0.14503339  0.35045199  0.27521662    -0.33000
C245        C  0.14497028  0.35354648  0.24158651     0.36200
C246        C  0.16874083  0.35722605  0.22511149    -0.06000
C247        C  0.19232435  0.35716782  0.24274233    -0.32900
C248        C  0.19238154  0.35412313  0.27649025     0.36100
H249        H  0.12658169  0.34729244  0.28742661     0.16500
O250        O  0.12167089  0.35143869  0.22487068    -0.60400
H251        H  0.21073157  0.36016601  0.23038760     0.16500
O252        O  0.21566991  0.35610001  0.29318659    -0.60500
H253        H  0.22463528  0.33582118  0.28900724     0.43500
H254        H  0.11275169  0.37179535  0.22882656     0.43400
C255        C  0.22730710  0.35000470  0.37710866    -0.05600
C256        C  0.24052928  0.32444184  0.39097340    -0.33000
C257        C  0.26778313  0.32222615  0.38892994     0.36200
C258        C  0.28200992  0.34627637  0.37335931    -0.06000
C259        C  0.26888158  0.37268403  0.36088088    -0.32900
C260        C  0.24162237  0.37463541  0.36265047     0.36100
H261        H  0.22964893  0.30595281  0.40307273     0.16500
O262        O  0.28053375  0.29728528  0.40319901    -0.60400
H263        H  0.27978282  0.39147543  0.34919420     0.16500
O264        O  0.22907128  0.39986724  0.34881296    -0.60500
H265        H  0.22578979  0.41466318  0.36689239     0.43500
H266        H  0.27122959  0.27780349  0.39585423     0.43400
C267        C  0.16755700  0.13544894  0.27916249    -0.05600
C268        C  0.16529089  0.10809067  0.25994903    -0.33000
C269        C  0.16603474  0.11004203  0.22614347     0.36200
C270        C  0.16901604  0.13973801  0.21094162    -0.06000
C271        C  0.17235597  0.16670713  0.23036223    -0.32900
C272        C  0.17078898  0.16497551  0.26395924     0.36100
H273        H  0.16341275  0.08503851  0.27117557     0.16500
O274        O  0.16470294  0.08267729  0.20833731    -0.60400
H275        H  0.17577796  0.18948330  0.21967694     0.16500
O276        O  0.17179457  0.19250370  0.28154915    -0.60500
H277        H  0.15335177  0.19922548  0.28345092     0.43500
H278        H  0.18314357  0.07695665  0.20434156     0.43400
C279        C  0.22885701  0.12350182  0.35711981    -0.05600
C280        C  0.24151464  0.12432059  0.32728221    -0.33000
C281        C  0.26875244  0.12333779  0.32567166     0.36200
C282        C  0.28395888  0.12177622  0.35424725    -0.06000
C283        C  0.27130600  0.12022234  0.38417006    -0.32900
C284        C  0.24392665  0.12130122  0.38575128     0.36100
H285        H  0.23019909  0.12578005  0.30501494     0.16500
O286        O  0.28029587  0.12401948  0.29594685    -0.60400
H287        H  0.28270642  0.11945165  0.40639915     0.16500
O288        O  0.23220148  0.12155163  0.41536715    -0.60500
H289        H  0.22949147  0.14423645  0.42039453     0.43500
H290        H  0.28223803  0.10151146  0.28969738     0.43400
C291        C  0.16800785  0.20389304  0.36437662    -0.05600
C292        C  0.14429818  0.22000132  0.36100139    -0.33000
C293        C  0.14363951  0.25305829  0.36250582     0.36200
C294        C  0.16702193  0.27051031  0.36695670    -0.06000
C295        C  0.19071264  0.25429881  0.37047026    -0.32900
C296        C  0.19126611  0.22117063  0.36974216     0.36100
H297        H  0.12628659  0.20692743  0.35650212     0.16500
O298        O  0.12028344  0.26818522  0.35774721    -0.60400
H299        H  0.20880612  0.26723003  0.37417784     0.16500
O300        O  0.21432086  0.20582285  0.37594731    -0.60500
H301        H  0.22466763  0.20802390  0.35597046     0.43500
H302        H  0.11029035  0.26455125  0.37781067     0.43400
C303        C  0.09415630  0.06045598  0.41897640    -0.05600
C304        C  0.08749368  0.08377757  0.39628494    -0.33000
C305        C  0.10673082  0.10070300  0.37981060     0.36200
C306        C  0.13355947  0.09444215  0.38539649    -0.06000
C307        C  0.14016518  0.07047908  0.40759053    -0.32900
C308        C  0.12085865  0.05355313  0.42410958     0.36100
H309        H  0.06721018  0.08959660  0.39163218     0.16500
O310        O  0.09905465  0.12347352  0.35809831    -0.60400
H311        H  0.16019445  0.06462015  0.41294866     0.16500
O312        O  0.12851533  0.03060550  0.44557858    -0.60500
H313        H  0.13107749  0.01137572  0.43228726     0.43500
H314        H  0.09318576  0.14156736  0.37136354     0.43400
C315        C  0.13522275  0.39979121  0.11717747    -0.05600
C316        C  0.11230332  0.41090596  0.13202981    -0.33000
C317        C  0.09307073  0.42730524  0.11472538     0.36200
C318        C  0.09588137  0.43298178  0.08147839    -0.06000
C319        C  0.11854148  0.42208518  0.06627989    -0.32900
C320        C  0.13770410  0.40507338  0.08355464     0.36100
H321        H  0.10802546  0.40592283  0.15692905     0.16500
O322        O  0.07162556  0.43803778  0.13086819    -0.60400
H323        H  0.12096372  0.42563990  0.04055880     0.16500
O324        O  0.15854229  0.39318069  0.06709894    -0.60500
H325        H  0.15188534  0.37353387  0.05661174     0.43500
H326        H  0.05963215  0.41952040  0.13231210     0.43400
C327        C  0.41573924  0.07547219  0.06169956    -0.05600
C328        C  0.42313217  0.09854997  0.08459183    -0.33000
C329        C  0.40452864  0.11609917  0.10116452     0.36200
C330        C  0.37747112  0.11129527  0.09514486    -0.06000
C331        C  0.37004463  0.08900262  0.07125761    -0.32900
C332        C  0.38880081  0.07125416  0.05472727     0.36100
H333        H  0.44357930  0.10281731  0.09035827     0.16500
O334        O  0.41308669  0.13830406  0.12323000    -0.60400
H335        H  0.34977796  0.08476560  0.06510196     0.16500
O336        O  0.38045264  0.05029654  0.03137798    -0.60500
H337        H  0.37634483  0.03044713  0.04312645     0.43500
H338        H  0.41972706  0.12610003  0.14203796     0.43400
C339        C  0.09603533  0.07667481  0.06496225    -0.05600
C340        C  0.11696196  0.06256894  0.08152940    -0.33000
C341        C  0.13530421  0.08112611  0.09888998     0.36200
C342        C  0.13364581  0.11463170  0.09889609    -0.06000
C343        C  0.11288898  0.12838324  0.08114852    -0.32900
C344        C  0.09414925  0.10982306  0.06493850     0.36100
H345        H  0.11849471  0.03701093  0.08216737     0.16500
O346        O  0.15466080  0.06622080  0.11618160    -0.60400
H347        H  0.11002852  0.15351108  0.08002309     0.16500
O348        O  0.07411716  0.12449212  0.04861708    -0.60500
H349        H  0.06130706  0.13013570  0.06541967     0.43500
H350        H  0.14606977  0.05799630  0.13586539     0.43400
C351        C  0.37657315  0.37583979  0.40302314    -0.05600
C352        C  0.36968879  0.39817857  0.42675320    -0.33000
C353        C  0.38882589  0.41517918  0.44433419     0.36200
C354        C  0.41564873  0.40986673  0.43889602    -0.06000
C355        C  0.42248231  0.38704141  0.41589231    -0.32900
C356        C  0.40346104  0.37055794  0.39794117     0.36100
H357        H  0.34959966  0.40328618  0.43195364     0.16500
O358        O  0.38092702  0.43662971  0.46704197    -0.60400
H359        H  0.44282348  0.38227525  0.41102168     0.16500
O360        O  0.41144608  0.34885165  0.37552799    -0.60500
H361        H  0.41725800  0.36149697  0.35671167     0.43500
H362        H  0.37590474  0.45576509  0.45463408     0.43400
C363        C  0.41905454  0.06137298  0.41906320    -0.05600
C364        C  0.39443490  0.06644630  0.43273086    -0.33000
C365        C  0.37473413  0.08246568  0.41564704     0.36200
C366        C  0.37886381  0.09253122  0.38344176    -0.06000
C367        C  0.40408572  0.08869660  0.37068746    -0.32900
C368        C  0.42377743  0.07307615  0.38779264     0.36100
H369        H  0.39062526  0.05878049  0.45722155     0.16500
O370        O  0.35192307  0.08888674  0.43126190    -0.60400
H371        H  0.40920694  0.09858924  0.34751891     0.12900
O372        O  0.44748101  0.06901099  0.37327974    -0.60500
H373        H  0.45706960  0.08929434  0.37659362     0.43500
H374        H  0.35388703  0.11100014  0.43904079     0.43400
C375        C  0.13277515  0.37838713  0.40231460    -0.05600
C376        C  0.10996134  0.36449401  0.41523976    -0.33000
C377        C  0.09091795  0.38266503  0.43021607     0.36200
C378        C  0.09396926  0.41565873  0.43271154    -0.06000
C379        C  0.11640943  0.42995223  0.41982499    -0.32900
C380        C  0.13551616  0.41175120  0.40445422     0.36100
H381        H  0.10573373  0.33958516  0.41305074     0.16500
O382        O  0.06956816  0.36765852  0.44314405    -0.60400
H383        H  0.11884627  0.45542704  0.42093808     0.16500
O384        O  0.15631080  0.42695699  0.39045852    -0.60500
H385        H  0.16759045  0.43428478  0.40870408     0.43500
H386        H  0.05698362  0.36499688  0.42488740     0.43400
C387        C  0.41836590  0.42914525  0.07983313    -0.05600
C388        C  0.39524958  0.41820609  0.06476369    -0.33000
C389        C  0.37664489  0.40047337  0.08196734     0.36200
C390        C  0.38007181  0.39468774  0.11550972    -0.06000
C391        C  0.40346756  0.40576248  0.13027234    -0.32900
C392        C  0.42231036  0.42266951  0.11290329     0.36100
H393        H  0.39207218  0.42224093  0.03915868     0.16500
O394        O  0.35536674  0.38839934  0.06547793    -0.60400
H395        H  0.40826095  0.40050626  0.15510112     0.16500
O396        O  0.44441448  0.43333015  0.12879920    -0.60500
H397        H  0.45529871  0.41430072  0.13233571     0.43500
H398        H  0.36096951  0.36745862  0.05739678     0.43400
O399        O  0.46203412  0.42509622  0.94278106    -0.75400
O400        O  0.43195491  0.45618614  0.96709891    -0.54400
C401        C  0.43828060  0.43288670  0.94884306     0.78300
O402        O  0.05117251  0.44183887  0.57059545    -0.60000
O403        O  0.08201950  0.46425117  0.53835312    -0.53100
C404        C  0.07503247  0.44708555  0.56244841     0.70300
O405        O  0.46228597  0.44116769  0.57502041    -0.74600
O406        O  0.43153408  0.46230660  0.54103821    -0.55200
C407        C  0.43844257  0.44578869  0.56574263     0.76300
O408        O  0.04774586  0.42323455  0.94564607    -0.59700
O409        O  0.07926779  0.45582307  0.96719978    -0.52900
C410        C  0.07177837  0.43153604  0.95058965     0.72900
Zr411      Zr  0.00432891  0.44228020  0.95938873     2.54700
O412        O  0.00440456  0.38542022  0.96882520    -0.80300
O413        O  0.00187164  0.43635614  0.90082360    -0.93700
Zr414      Zr  0.00690153  0.45475774  0.55288224     2.64700
O415        O  0.50629834  0.39892521  0.57148225    -0.98700
O416        O  0.00767335  0.46213085  0.61122917    -0.80700
O417        O  0.48064138  0.44578242  0.51035636    -0.84100
O418        O  0.03173009  0.44814884  0.50536014    -2.18800
O419        O  0.05066217  0.04905575  0.92759589    -0.67500
O420        O  0.08107529  0.02562976  0.96005373    -0.52100
C421        C  0.07450399  0.04324526  0.93596805     0.71300
O422        O  0.46300463  0.06724465  0.55223551    -0.60400
O423        O  0.43236075  0.03396345  0.53034988    -0.52400
C424        C  0.43909056  0.05839601  0.54727853     0.73100
O425        O  0.04861296  0.06994827  0.55414296    -0.71800
O426        O  0.07952123  0.03729673  0.53341387    -0.50500
C427        C  0.07252000  0.06160216  0.54993023     0.74500
O428        O  0.45970961  0.04519194  0.92812506    -0.67100
O429        O  0.42912186  0.02222868  0.96058774    -0.54300
C430        C  0.43597376  0.03955481  0.93656052     0.72800
Zr431      Zr  0.50407546  0.03271645  0.94568399     2.77500
O432        O  0.50454400  0.09028962  0.94208995    -0.97900
O433        O  0.50205739  0.02601669  0.88726024    -0.78700
Zr434      Zr  0.50691428  0.04805444  0.54059701     2.70100
O435        O  0.00432568  0.10785587  0.52989532    -0.79900
O436        O  0.50669530  0.05164839  0.59938353    -0.99000
Zr437      Zr  0.45564720  0.49251542  0.50144949     2.21500
Zr438      Zr  0.05667899  0.99537494  0.99960726     2.11100
O439        O  0.03238801  0.04306188  0.99360721    -2.47700
O440        O  0.47883048  0.03946001  0.99285784    -0.79700
O441        O  0.03076169  0.48785695  0.95050178    -0.71900
O442        O  0.48112910  0.00190866  0.54852306    -2.32900
O443        O  0.48109677  0.48970399  0.95012027    -2.29100
O444        O  0.03070919  0.00567466  0.54896917    -0.73700
H445        H  0.04272767  0.42977486  0.50745893     0.78300
H446        H  0.46981139  0.00465696  0.56685675     0.79400
H447        H  0.04388549  0.06116832  0.99133149     0.81600
H448        H  0.46966998  0.48754818  0.93143808     0.79200
H449        H  0.50051328  0.45249792  0.62587632     0.42300
H450        H  0.00580123  0.08142180  0.60127214     0.41200
H451        H  0.51902316  0.10921057  0.51550079     0.40900
H452        H  0.02427715  0.10125913  0.94684341     0.38800
H453        H  0.00364385  0.01241414  0.88199270     0.42000
H454        H  0.49119828  0.44504218  0.88991312     0.36800
H455        H  0.50185307  0.37634225  0.94758817     0.42900
H456        H  0.00655854  0.39463912  0.58404136     0.39300
H457        H  0.50222109  0.09484153  0.91877538     0.44200
H458        H  0.98339184  0.44040583  0.89488805     0.42900
H459        H  0.52345403  0.39092738  0.56447940     0.43100
H460        H  0.48802762  0.05250473  0.60531446     0.43400
C461        C  0.15560239  0.11199831  0.86445609     0.86300
C462        C  0.15279529  0.11103735  0.82728179    -0.53900
C463        C  0.16945390  0.13107934  0.81143613     0.09300
C464        C  0.18776753  0.14975722  0.83435818     0.20200
C465        C  0.18489274  0.10470107  0.87064341    -0.54600
C466        C  0.20154785  0.12450045  0.85463911     0.09400
C467        C  0.15291897  0.14710998  0.87342126    -0.54200
C468        C  0.16961155  0.16690590  0.85767374     0.09900
H469        H  0.13855576  0.09610143  0.81475958     0.14400
H470        H  0.20183435  0.16554639  0.82204330     0.00200
H471        H  0.19230541  0.08503169  0.88461332     0.14800
H472        H  0.13873081  0.15562119  0.89061431     0.14500
C473        C  0.15120165  0.35542654  0.88673671     0.86300
C474        C  0.14829890  0.31897312  0.88753947    -0.53900
C475        C  0.16545376  0.30339619  0.86836232     0.09300
C476        C  0.18446423  0.32543352  0.85056909     0.20200
C477        C  0.18018122  0.36119174  0.89635110    -0.54600
C478        C  0.19743844  0.34557363  0.87721322     0.09400
C479        C  0.14950916  0.36388761  0.85064130    -0.54200
C480        C  0.16694630  0.34845112  0.83170906     0.09900
H481        H  0.13514034  0.30592988  0.90293563     0.14400
H482        H  0.19850778  0.31258803  0.83524465     0.00200
H483        H  0.18649068  0.37621346  0.91631221     0.14800
H484        H  0.13567502  0.38088745  0.84093426     0.14500
C485        C  0.15480238  0.38181534  0.63914171     0.86300
C486        C  0.15281898  0.38462306  0.67624475    -0.53900
C487        C  0.16925833  0.36522409  0.69294978     0.09300
C488        C  0.18701289  0.34561591  0.67127717     0.20200
C489        C  0.18394061  0.38911100  0.63281533    -0.54600
C490        C  0.20066222  0.36959732  0.64915931     0.09400
C491        C  0.15142927  0.34622311  0.63200481    -0.54200
C492        C  0.16820227  0.32727187  0.64889037     0.09900
H493        H  0.14019297  0.40088127  0.68873582     0.14400
H494        H  0.20094575  0.33046410  0.68481020     0.00200
H495        H  0.19079203  0.40731096  0.61639314     0.14800
H496        H  0.13679984  0.33686614  0.61520787     0.14500
C497        C  0.15317070  0.13854496  0.61640059     0.86300
C498        C  0.15070320  0.17499496  0.61615708    -0.53900
C499        C  0.16872268  0.19050280  0.63511291     0.09300
C500        C  0.18768807  0.16812266  0.65291768     0.20200
C501        C  0.18185086  0.13288249  0.60669854    -0.54600
C502        C  0.19988954  0.14804740  0.62611582     0.09400
C503        C  0.15210930  0.12977740  0.65241611    -0.54200
C504        C  0.17031645  0.14466056  0.67164366     0.09900
H505        H  0.13624015  0.18810572  0.60260968     0.14400
H506        H  0.20256823  0.18072355  0.66798926     0.00200
H507        H  0.18736125  0.11723652  0.58716807     0.14800
H508        H  0.13746472  0.11362005  0.66183737     0.14500
C509        C  0.36020405  0.11178848  0.86131499     0.86300
C510        C  0.36278834  0.14692672  0.87097696    -0.53900
C511        C  0.34556421  0.16642418  0.85538557     0.09300
C512        C  0.32756439  0.14903502  0.83108741     0.20200
C513        C  0.33114103  0.10333181  0.86651604    -0.54600
C514        C  0.31412887  0.12282551  0.85060676     0.09400
C515        C  0.36307590  0.11217558  0.82421090    -0.54200
C516        C  0.34586919  0.13135255  0.80858733     0.09900
H517        H  0.37695459  0.15553760  0.88874936     0.14400
H518        H  0.31382438  0.16478596  0.81796781     0.00200
H519        H  0.32464908  0.08349347  0.88113545     0.14800
H520        H  0.37724008  0.09919529  0.81057097     0.14500
C521        C  0.35871646  0.13189955  0.61447993     0.86300
C522        C  0.36129752  0.12561434  0.65101704    -0.53900
C523        C  0.34500952  0.14314149  0.66965330     0.09300
C524        C  0.32712290  0.16503493  0.65010598     0.20200
C525        C  0.32920991  0.12600246  0.60692542    -0.54600
C526        C  0.31284044  0.14315665  0.62594884     0.09400
C527        C  0.36212844  0.16802472  0.61099944    -0.54200
C528        C  0.34575183  0.18515230  0.62978850     0.09900
H529        H  0.37513144  0.10892063  0.66126573     0.14400
H530        H  0.31363356  0.17923501  0.66494633     0.00200
H531        H  0.32141901  0.10978904  0.58892521     0.14800
H532        H  0.37660231  0.17909436  0.59559420     0.14500
C533        C  0.35937603  0.37584690  0.63830865     0.86300
C534        C  0.36287305  0.34077073  0.62949968    -0.53900
C535        C  0.34550943  0.32078657  0.64375708     0.09300
C536        C  0.32613987  0.33734221  0.66600831     0.20200
C537        C  0.33044198  0.38305005  0.63057330    -0.54600
C538        C  0.31309436  0.36290868  0.64508748     0.09400
C539        C  0.36067843  0.37625790  0.67570260    -0.54200
C540        C  0.34318480  0.35627788  0.69011964     0.09900
H541        H  0.37797326  0.33240840  0.61345994     0.14400
H542        H  0.31204423  0.32093712  0.67769555     0.00200
H543        H  0.32427653  0.40248734  0.61520312     0.14800
H544        H  0.37379826  0.39074640  0.69018337     0.14500
C545        C  0.35591999  0.35700768  0.88436586     0.86300
C546        C  0.35711438  0.36321701  0.84783451    -0.53900
C547        C  0.33998582  0.34551495  0.82962984     0.09300
C548        C  0.32291425  0.32304664  0.84981472     0.20200
C549        C  0.32691002  0.36228225  0.89283875    -0.54600
C550        C  0.30981542  0.34443558  0.87479584     0.09400
C551        C  0.35934815  0.32098882  0.88801426    -0.54200
C552        C  0.34257925  0.30310672  0.86937667     0.09900
H553        H  0.37076097  0.37999010  0.83725168     0.14400
H554        H  0.30862447  0.30909116  0.83515691     0.00200
H555        H  0.31992449  0.37792229  0.91148197     0.14800
H556        H  0.37387635  0.31068565  0.90407120     0.14500
C557        C  0.33868210  0.34792394  0.79377685    -0.05600
C558        C  0.34013779  0.37788108  0.77917431    -0.33000
C559        C  0.34081045  0.38097291  0.74555696     0.36200
C560        C  0.34058805  0.35378275  0.72575486    -0.06000
C561        C  0.33821429  0.32387936  0.74021308    -0.32900
C562        C  0.33713805  0.32078964  0.77394187     0.36100
H563        H  0.34069549  0.39907476  0.79393542     0.16500
O564        O  0.34151331  0.41074363  0.73236020    -0.60400
H565        H  0.33802781  0.30272652  0.72538758     0.16500
O566        O  0.33642038  0.29107473  0.78725303    -0.60500
H567        H  0.31840657  0.28303629  0.78309701     0.43500
H568        H  0.32311880  0.41547218  0.72639916     0.43400
C569        C  0.34608168  0.28615305  0.63905500    -0.05600
C570        C  0.36464102  0.26815098  0.65597858    -0.33000
C571        C  0.36534546  0.23522983  0.65215219     0.36200
C572        C  0.34679864  0.21994797  0.63201320    -0.06000
C573        C  0.32863423  0.23792794  0.61460087    -0.32900
C574        C  0.32843942  0.27105018  0.61758593     0.36100
H575        H  0.37856505  0.27969042  0.67216704     0.16500
O576        O  0.38377523  0.21811834  0.66878690    -0.60400
H577        H  0.31476240  0.22624658  0.59844722     0.16500
O578        O  0.31218517  0.28876426  0.59821855    -0.60500
H579        H  0.29482496  0.27809864  0.59828743     0.43500
H580        H  0.39769959  0.21387760  0.65294556     0.43400
C581        C  0.34442985  0.14055224  0.70531390    -0.05600
C582        C  0.34524583  0.11047953  0.71958231    -0.33000
C583        C  0.34545421  0.10712040  0.75314949     0.36200
C584        C  0.34474912  0.13415693  0.77303772    -0.06000
C585        C  0.34327689  0.16419118  0.75888284    -0.32900
C586        C  0.34311541  0.16756723  0.72524422     0.36100
H587        H  0.34553029  0.08942459  0.70463329     0.16500
O588        O  0.34524662  0.07729949  0.76629854    -0.60400
H589        H  0.34296288  0.18517916  0.77394370     0.16500
O590        O  0.34333704  0.19739967  0.71223535    -0.60500
H591        H  0.32563072  0.20592575  0.71595662     0.43500
H592        H  0.36291215  0.06871340  0.76239782     0.43400
C593        C  0.34473163  0.20121848  0.86064464    -0.05600
C594        C  0.36811034  0.21876812  0.86306048    -0.33000
C595        C  0.36780480  0.25179510  0.86639563     0.36200
C596        C  0.34375880  0.26793920  0.86720720    -0.06000
C597        C  0.32044237  0.25030006  0.86470916    -0.32900
C598        C  0.32074783  0.21729786  0.86203713     0.36100
H599        H  0.38675245  0.20695501  0.86141941     0.16500
O600        O  0.39109577  0.26816914  0.86650970    -0.60400
H601        H  0.30178756  0.26206529  0.86502362     0.16500
O602        O  0.29740022  0.20106587  0.86114027    -0.60500
H603        H  0.29486019  0.19320358  0.88346867     0.43500
H604        H  0.39922828  0.26395308  0.88795073     0.43400
C605        C  0.22862148  0.14347505  0.62422670    -0.05600
C606        C  0.24242920  0.13531181  0.65248242    -0.33000
C607        C  0.26976338  0.13379736  0.65284308     0.36200
C608        C  0.28385312  0.14056134  0.62463059    -0.06000
C609        C  0.27006327  0.14733541  0.59592047    -0.32900
C610        C  0.24258921  0.14878541  0.59556418     0.36100
H611        H  0.23195693  0.13045405  0.67456411     0.16500
O612        O  0.28255593  0.12504972  0.68074448    -0.60400
H613        H  0.28065900  0.15280796  0.57409249     0.16500
O614        O  0.22975671  0.15760560  0.56775615    -0.60500
H615        H  0.22797097  0.13793321  0.55480535     0.43500
H616        H  0.28214188  0.14390105  0.69501276     0.43400
C617        C  0.16857225  0.29231789  0.64548885    -0.05600
C618        C  0.16704203  0.27849369  0.61465104    -0.33000
C619        C  0.16768758  0.24550652  0.61084016     0.36200
C620        C  0.16943095  0.22568934  0.63817967    -0.06000
C621        C  0.17082674  0.23969875  0.66886482    -0.32900
C622        C  0.17094421  0.27259072  0.67272711     0.36100
H623        H  0.16586870  0.29334163  0.59335444     0.16500
O624        O  0.16767996  0.23290951  0.58027706    -0.60400
H625        H  0.17077081  0.22533108  0.69015015     0.16500
O626        O  0.17175699  0.28508151  0.70336338    -0.60500
H627        H  0.18976784  0.28127566  0.71156866     0.43500
H628        H  0.14976650  0.23621840  0.57154446     0.43400
C629        C  0.22926008  0.36928352  0.64448102    -0.05600
C630        C  0.24450695  0.39638389  0.65088914    -0.33000
C631        C  0.27191372  0.39503016  0.64997340     0.36200
C632        C  0.28428732  0.36620212  0.64291924    -0.06000
C633        C  0.26889292  0.33942645  0.63596224    -0.32900
C634        C  0.24163269  0.34090648  0.63609473     0.36100
H635        H  0.23520025  0.41826291  0.65777383     0.16500
O636        O  0.28641479  0.42127122  0.65845505    -0.60400
H637        H  0.27798763  0.31710336  0.63085020     0.16500
O638        O  0.22718565  0.31469103  0.62724834    -0.60500
H639        H  0.22879280  0.29972780  0.64560602     0.43500
H640        H  0.28655800  0.43475499  0.63885357     0.43400
C641        C  0.16796928  0.35293513  0.79616171    -0.05600
C642        C  0.14454567  0.35323738  0.77814523    -0.33000
C643        C  0.14471121  0.35743932  0.74462903     0.36200
C644        C  0.16859579  0.36172543  0.72853694    -0.06000
C645        C  0.19203368  0.36126092  0.74641753    -0.32900
C646        C  0.19188106  0.35672566  0.77996939     0.36100
H647        H  0.12601677  0.34950596  0.79002144     0.16500
O648        O  0.12157180  0.35535941  0.72757121    -0.60400
H649        H  0.21053573  0.36457744  0.73435692     0.16500
O650        O  0.21512647  0.35734865  0.79679499    -0.60500
H651        H  0.22375793  0.33707206  0.79164562     0.43500
H652        H  0.11251405  0.37559498  0.73165822     0.43400
C653        C  0.22616221  0.34789696  0.88072727    -0.05600
C654        C  0.23987013  0.32354814  0.89622094    -0.33000
C655        C  0.26731396  0.32264684  0.89532024     0.36200
C656        C  0.28114288  0.34617038  0.87840155    -0.06000
C657        C  0.26745971  0.37119513  0.86400723    -0.32900
C658        C  0.24012667  0.37234008  0.86541492     0.36100
H659        H  0.22924806  0.30492595  0.90853920     0.16500
O660        O  0.28061319  0.29937493  0.91165856    -0.60400
H661        H  0.27799074  0.38954717  0.85115512     0.16500
O662        O  0.22715376  0.39669791  0.85056218    -0.60500
H663        H  0.22468775  0.41274254  0.86772398     0.43500
H664        H  0.27272137  0.27896149  0.90454045     0.43400
C665        C  0.17024092  0.13418094  0.77559479    -0.05600
C666        C  0.16547062  0.10768873  0.75569478    -0.33000
C667        C  0.16629370  0.11024713  0.72192350     0.36200
C668        C  0.17211275  0.13968718  0.70734724    -0.06000
C669        C  0.17863981  0.16530624  0.72743807    -0.32900
C670        C  0.17655881  0.16330731  0.76089615     0.36100
H671        H  0.16136727  0.08477139  0.76627993     0.16500
O672        O  0.16209240  0.08358835  0.70359077    -0.60400
H673        H  0.18469252  0.18753517  0.71750777     0.16500
O674        O  0.17973922  0.19051903  0.77865544    -0.60500
H675        H  0.16190366  0.19918728  0.78090127     0.43500
H676        H  0.17977344  0.07562449  0.69864319     0.43400
C677        C  0.23030629  0.12079685  0.85414112    -0.05600
C678        C  0.24304756  0.12196832  0.82434392    -0.33000
C679        C  0.27028075  0.12117085  0.82288507     0.36200
C680        C  0.28532718  0.11936805  0.85156708    -0.06000
C681        C  0.27261290  0.11694050  0.88134337    -0.32900
C682        C  0.24526010  0.11801002  0.88279266     0.36100
H683        H  0.23181669  0.12380862  0.80204398     0.16500
O684        O  0.28197168  0.12264180  0.79326122    -0.60400
H685        H  0.28394641  0.11585873  0.90360833     0.16500
O686        O  0.23345942  0.11800089  0.91235524    -0.60500
H687        H  0.23040037  0.14062296  0.91736091     0.43500
H688        H  0.28685666  0.10054968  0.78817443     0.43400
C689        C  0.16876526  0.20180714  0.86108606    -0.05600
C690        C  0.14453834  0.21715174  0.86006519    -0.33000
C691        C  0.14311042  0.25014021  0.86248882     0.36200
C692        C  0.16621273  0.26837577  0.86588936    -0.06000
C693        C  0.19040787  0.25300934  0.86689873    -0.32900
C694        C  0.19181671  0.21998796  0.86456827     0.36100
H695        H  0.12663761  0.20355165  0.85672869     0.16500
O696        O  0.11919863  0.26443055  0.85970762    -0.60400
H697        H  0.20832257  0.26657933  0.86996864     0.16500
O698        O  0.21567355  0.20560209  0.86740421    -0.60500
H699        H  0.22492938  0.21058025  0.84709004     0.43500
H700        H  0.11009953  0.25967437  0.88018847     0.43400
C701        C  0.09563524  0.05862857  0.91675428    -0.05600
C702        C  0.08894103  0.08034101  0.89234734    -0.33000
C703        C  0.10812813  0.09691171  0.87527289     0.36200
C704        C  0.13499885  0.09175361  0.88169775    -0.06000
C705        C  0.14166400  0.06941021  0.90564898    -0.32900
C706        C  0.12242512  0.05300724  0.92292644     0.36100
H707        H  0.06862868  0.08526498  0.88681122     0.16500
O708        O  0.10032393  0.11845670  0.85235932    -0.60400
H709        H  0.16171300  0.06483249  0.91220218     0.16500
O710        O  0.13026269  0.03220135  0.94647975    -0.60500
H711        H  0.13244591  0.01170879  0.93518360     0.43500
H712        H  0.09526193  0.13757918  0.86461082     0.43400
C713        C  0.13505703  0.40120306  0.61950105    -0.05600
C714        C  0.11117502  0.41022729  0.63330415    -0.33000
C715        C  0.09182001  0.42538376  0.61516376     0.36200
C716        C  0.09574062  0.43196759  0.58224543    -0.06000
C717        C  0.11915758  0.42252312  0.56797823    -0.32900
C718        C  0.13828792  0.40645647  0.58596416     0.36100
H719        H  0.10648411  0.40446715  0.65795925     0.16500
O720        O  0.06916639  0.43397466  0.63012115    -0.60400
H721        H  0.12220729  0.42641810  0.54241602     0.16500
O722        O  0.15971278  0.39525824  0.57016669    -0.60500
H723        H  0.15533958  0.37295352  0.56470335     0.43500
H724        H  0.05837626  0.41436353  0.63099823     0.43400
C725        C  0.41813347  0.07743836  0.56293246    -0.05600
C726        C  0.42512461  0.10169637  0.58479362    -0.33000
C727        C  0.40615266  0.11899823  0.60120169     0.36200
C728        C  0.37915945  0.11319419  0.59549119    -0.06000
C729        C  0.37220687  0.08912982  0.57328273    -0.32900
C730        C  0.39122765  0.07125256  0.55749281     0.36100
H731        H  0.44551863  0.10702276  0.58989948     0.16500
O732        O  0.41429051  0.14174691  0.62290412    -0.60400
H733        H  0.35206345  0.08312967  0.56822781     0.16500
O734        O  0.38306402  0.04778235  0.53669162    -0.60500
H735        H  0.38015819  0.02893279  0.55051955     0.43500
H736        H  0.41963850  0.13001560  0.64262811     0.43400
C737        C  0.09336287  0.08150952  0.56531593    -0.05600
C738        C  0.11557310  0.06740639  0.57911303    -0.33000
C739        C  0.13479081  0.08569107  0.59522274     0.36200
C740        C  0.13281177  0.11911293  0.59676022    -0.06000
C741        C  0.11059840  0.13305280  0.58217042    -0.32900
C742        C  0.09100501  0.11463377  0.56711132     0.36100
H743        H  0.11764283  0.04191377  0.57840118     0.16500
O744        O  0.15539776  0.07052797  0.60981601    -0.60400
H745        H  0.10737562  0.15816341  0.58288199     0.16500
O746        O  0.06981746  0.12947262  0.55348324    -0.60500
H747        H  0.05774625  0.13328190  0.57161618     0.43500
H748        H  0.14849168  0.06225654  0.63047903     0.43400
C749        C  0.37694237  0.37634912  0.90265761    -0.05600
C750        C  0.37067673  0.40204655  0.92277635    -0.33000
C751        C  0.39018858  0.42061999  0.93776790     0.36200
C752        C  0.41688107  0.41362565  0.93345116    -0.06000
C753        C  0.42319819  0.38798317  0.91344621    -0.32900
C754        C  0.40373615  0.36993999  0.89781147     0.36100
H755        H  0.35072894  0.40897978  0.92645724     0.16500
O756        O  0.38271721  0.44570914  0.95645358    -0.60400
H757        H  0.44342876  0.38199485  0.90932143     0.16500
O758        O  0.41121650  0.34586311  0.87776666    -0.60500
H759        H  0.41572889  0.35623348  0.85705566     0.43500
H760        H  0.38009166  0.46345721  0.94109887     0.43400
C761        C  0.41529119  0.05471276  0.91720630    -0.05600
C762        C  0.39498963  0.07060487  0.93250675    -0.33000
C763        C  0.37716349  0.08869089  0.91453030     0.36200
C764        C  0.37896561  0.09051034  0.88045423    -0.06000
C765        C  0.39871547  0.07282098  0.86535461    -0.32900
C766        C  0.41677303  0.05543289  0.88340604     0.36100
H767        H  0.39360082  0.07013943  0.95861519     0.16500
O768        O  0.35804102  0.10470020  0.93055024    -0.60400
H769        H  0.40113395  0.07224552  0.83962639     0.12900
O770        O  0.43557261  0.03857766  0.86765873    -0.60500
H771        H  0.44951598  0.05420418  0.86259170     0.43500
H772        H  0.36689677  0.12358321  0.94002207     0.43400
C773        C  0.13139623  0.37459849  0.90617358    -0.05600
C774        C  0.10862674  0.36050147  0.91905577    -0.33000
C775        C  0.08925839  0.37868378  0.93354020     0.36200
C776        C  0.09227514  0.41172369  0.93601603    -0.06000
C777        C  0.11494254  0.42597897  0.92378695    -0.32900
C778        C  0.13413872  0.40790525  0.90866134     0.36100
H779        H  0.10467519  0.33550980  0.91707592     0.16500
O780        O  0.06761088  0.36372366  0.94578740    -0.60400
H781        H  0.11743512  0.45145658  0.92499221     0.16500
O782        O  0.15494550  0.42326705  0.89488282    -0.60500
H783        H  0.16644354  0.42985040  0.91320965     0.43500
H784        H  0.05598903  0.35954979  0.92685670     0.43400
C785        C  0.41745850  0.43052377  0.58459722    -0.05600
C786        C  0.39665906  0.41516980  0.56851937    -0.33000
C787        C  0.37778279  0.39811380  0.58577314     0.36200
C788        C  0.37878328  0.39703192  0.62000473    -0.06000
C789        C  0.39910805  0.41403990  0.63590490    -0.32900
C790        C  0.41839957  0.43016059  0.61852482     0.36100
H791        H  0.39561846  0.41525413  0.54233969     0.16500
O792        O  0.35855771  0.38210533  0.56885375    -0.60400
H793        H  0.40114846  0.41447577  0.66179526     0.16500
O794        O  0.43789701  0.44606938  0.63504108    -0.60500
H795        H  0.45099742  0.42974900  0.64067781     0.43500
H796        H  0.36710884  0.36298244  0.56016025     0.43400
O797        O  0.46211323  0.92268474  0.44753278    -0.75400
O798        O  0.43174116  0.95514547  0.46945209    -0.54400
C799        C  0.43826877  0.93096037  0.45254436     0.78300
O800        O  0.05032931  0.94479437  0.07317456    -0.60000
O801        O  0.08112705  0.96445648  0.03900994    -0.53100
C802        C  0.07420263  0.94890096  0.06429099     0.70300
O803        O  0.46130164  0.93761245  0.07088269    -0.74600
O804        O  0.43006277  0.96030774  0.03882621    -0.55200
C805        C  0.43731697  0.94260344  0.06255666     0.76300
O806        O  0.04996280  0.92527861  0.44903862    -0.59700
O807        O  0.08043191  0.95973847  0.46988996    -0.52900
C808        C  0.07377116  0.93474755  0.45374488     0.72900
Zr809      Zr  0.00552612  0.94259068  0.46111082     2.54700
O810        O  0.00534528  0.88619569  0.47325536    -0.80300
O811        O  0.00747388  0.93492524  0.40288197    -0.93700
Zr812      Zr  0.00605005  0.95543417  0.05295004     2.64700
O813        O  0.50563540  0.89644640  0.06323784    -0.98700
O814        O  0.00391830  0.96184356  0.11129490    -0.80700
O815        O  0.47924435  0.94543189  0.00666677    -0.84100
O816        O  0.03083164  0.94840555  0.00549972    -2.18800
O817        O  0.05141747  0.54992067  0.42863298    -0.67500
O818        O  0.08185639  0.52630755  0.46083808    -0.52100
C819        C  0.07528889  0.54424362  0.43701984     0.71300
O820        O  0.46373475  0.56593248  0.05370756    -0.60400
O821        O  0.43294387  0.53470882  0.02907399    -0.52400
C822        C  0.43979922  0.55827892  0.04714108     0.73100
O823        O  0.05194492  0.56715736  0.05120243    -0.71800
O824        O  0.08190124  0.53373773  0.02955734    -0.50500
C825        C  0.07555943  0.55818847  0.04619364     0.74500
O826        O  0.46134794  0.54412134  0.42904247    -0.67100
O827        O  0.43046320  0.52177233  0.46119194    -0.54300
C828        C  0.43745579  0.53895364  0.43702912     0.72800
Zr829      Zr  0.50553142  0.53007946  0.44585101     2.77500
O830        O  0.50428831  0.58611994  0.43220166    -0.97900
O831        O  0.50402885  0.51427634  0.38929934    -0.78700
Zr832      Zr  0.50736747  0.54698862  0.04106522     2.70100
O833        O  0.00841796  0.60577999  0.02234074    -0.79900
O834        O  0.50688422  0.54888201  0.09988958    -0.99000
Zr835      Zr  0.45392061  0.99203715  0.99986305     2.21500
Zr836      Zr  0.05732677  0.49535555  0.49970685     2.11100
O837        O  0.03276976  0.54288262  0.49477892    -2.47700
O838        O  0.48094819  0.53931869  0.49307335    -0.79700
O839        O  0.03082477  0.98917806  0.45300005    -0.71900
O840        O  0.48173145  0.50042195  0.04704848    -2.32900
O841        O  0.48128962  0.98696967  0.45191535    -2.29100
O842        O  0.03238232  0.50390574  0.04656378    -0.73700
H843        H  0.04178947  0.93003721  0.00794538     0.78300
H844        H  0.47061398  0.50245510  0.06564138     0.79400
H845        H  0.04415312  0.56109899  0.49261029     0.81600
H846        H  0.46994235  0.98425709  0.43321350     0.79200
H847        H  0.51288322  0.94840961  0.12216458     0.42300
H848        H  0.01167553  0.58464017  0.09717500     0.41200
H849        H  0.52075894  0.60915518  0.01974012     0.40900
H850        H  0.00561069  0.59787108  0.41767787     0.38800
H851        H  0.01152934  0.50653847  0.38591562     0.42000
H852        H  0.50829555  0.90972853  0.39934868     0.36800
H853        H  0.51007241  0.87439919  0.44964520     0.42900
H854        H  0.02520006  0.89206691  0.05177210     0.39300
H855        H  0.51504712  0.58835761  0.41260733     0.44200
H856        H  0.00664747  0.91168728  0.39989029     0.42900
H857        H  0.51317014  0.89396437  0.08523385     0.43100
H858        H  0.51738905  0.56789976  0.10568181     0.43400
C859        C  0.15631944  0.61293786  0.36486546     0.86300
C860        C  0.15283371  0.61170672  0.32774650    -0.53900
C861        C  0.16930550  0.63143927  0.31127432     0.09300
C862        C  0.18806411  0.65029009  0.33347335     0.20200
C863        C  0.18563315  0.60543705  0.37029339    -0.54600
C864        C  0.20210750  0.62505736  0.35368756     0.09400
C865        C  0.15414937  0.64809277  0.37376237    -0.54200
C866        C  0.17053888  0.66775554  0.35734758     0.09900
H867        H  0.13840541  0.59668895  0.31565258     0.14400
H868        H  0.20168728  0.66594513  0.32020402     0.00200
H869        H  0.19312142  0.58589297  0.38439608     0.14800
H870        H  0.14060668  0.65669532  0.39168999     0.14500
C871        C  0.15268888  0.85689290  0.38964189     0.86300
C872        C  0.14985125  0.82031172  0.39135212    -0.53900
C873        C  0.16672528  0.80426710  0.37200721     0.09300
C874        C  0.18520667  0.82596077  0.35315469     0.20200
C875        C  0.18186051  0.86288346  0.39809782    -0.54600
C876        C  0.19869438  0.84660426  0.37892175     0.09400
C877        C  0.15021627  0.86432019  0.35332781    -0.54200
C878        C  0.16724038  0.84836862  0.33421695     0.09900
H879        H  0.13673587  0.80761391  0.40705042     0.14400
H880        H  0.19894622  0.81284938  0.33767507     0.00200
H881        H  0.18857325  0.87838719  0.41747667     0.14800
H882        H  0.13609022  0.88094703  0.34360195     0.14500
C883        C  0.15185106  0.87868482  0.14098574     0.86300
C884        C  0.14948485  0.87990685  0.17818974    -0.53900
C885        C  0.16583594  0.86003595  0.19446704     0.09300
C886        C  0.18380565  0.84119864  0.17230073     0.20200
C887        C  0.18112358  0.88613780  0.13548228    -0.54600
C888        C  0.19784147  0.86617597  0.15144454     0.09400
C889        C  0.14864335  0.84327440  0.13236884    -0.54200
C890        C  0.16522663  0.82376786  0.14888399     0.09900
H891        H  0.13719638  0.89595449  0.19131392     0.14400
H892        H  0.19723612  0.82516173  0.18559188     0.00200
H893        H  0.18799541  0.90491173  0.11973800     0.14800
H894        H  0.13423314  0.83439318  0.11503131     0.14500
C895        C  0.15394924  0.63514490  0.11525567     0.86300
C896        C  0.15079157  0.67157910  0.11488966    -0.53900
C897        C  0.16802727  0.68744376  0.13448037     0.09300
C898        C  0.18715964  0.66577531  0.15268168     0.20200
C899        C  0.18281467  0.63010250  0.10654255    -0.54600
C900        C  0.20025444  0.64588942  0.12621100     0.09400
C901        C  0.15230604  0.62639824  0.15139425    -0.54200
C902        C  0.16977289  0.64213607  0.17105541     0.09900
H903        H  0.13629933  0.68457023  0.10124830     0.14400
H904        H  0.20133907  0.67897584  0.16826019     0.00200
H905        H  0.18885009  0.61440103  0.08731086     0.14800
H906        H  0.13791715  0.60977294  0.16060920     0.14500
C907        C  0.36050332  0.60991643  0.36024838     0.86300
C908        C  0.36381063  0.64533924  0.36845062    -0.53900
C909        C  0.34719961  0.66489635  0.35186469     0.09300
C910        C  0.32897518  0.64703530  0.32817235     0.20200
C911        C  0.33120748  0.60264946  0.36543207    -0.54600
C912        C  0.31475416  0.62219129  0.34865905     0.09400
C913        C  0.36321362  0.60815012  0.32307819    -0.54200
C914        C  0.34685648  0.62773023  0.30644361     0.09900
H915        H  0.37782636  0.65399511  0.38637667     0.14400
H916        H  0.31568524  0.66264298  0.31429818     0.00200
H917        H  0.32403721  0.58335478  0.38028553     0.14800
H918        H  0.37645117  0.59270414  0.31057316     0.14500
C919        C  0.35936485  0.63345442  0.11157696     0.86300
C920        C  0.36274497  0.62664285  0.14794565    -0.53900
C921        C  0.34635406  0.64313188  0.16738598     0.09300
C922        C  0.32781407  0.66493594  0.14864479     0.20200
C923        C  0.32984048  0.62680681  0.10469201    -0.54600
C924        C  0.31347271  0.64312507  0.12451408     0.09400
C925        C  0.36193016  0.66973341  0.10853314    -0.54200
C926        C  0.34559302  0.68597303  0.12817716     0.09900
H927        H  0.37707132  0.61014581  0.15745810     0.14400
H928        H  0.31431288  0.67863908  0.16386715     0.00200
H929        H  0.32208613  0.61082638  0.08644840     0.14800
H930        H  0.37574751  0.68153391  0.09277080     0.14500
C931        C  0.35749199  0.87564998  0.13772010     0.86300
C932        C  0.35941435  0.84056750  0.12836550    -0.53900
C933        C  0.34226413  0.82123269  0.14376463     0.09300
C934        C  0.32451482  0.83835404  0.16745953     0.20200
C935        C  0.32838730  0.88424309  0.13204427    -0.54600
C936        C  0.31114555  0.86452076  0.14757798     0.09400
C937        C  0.36032470  0.87591244  0.17502843    -0.54200
C938        C  0.34308584  0.85639317  0.19040812     0.09900
H939        H  0.37362672  0.83162646  0.11142519     0.14400
H940        H  0.31067638  0.82234475  0.18012932     0.00200
H941        H  0.32206155  0.90378779  0.11693390     0.14800
H942        H  0.37389184  0.89058463  0.18874378     0.14500
C943        C  0.35688545  0.85599549  0.38493638     0.86300
C944        C  0.35819775  0.86303444  0.34849073    -0.53900
C945        C  0.34147510  0.84524891  0.32979634     0.09300
C946        C  0.32443608  0.82228335  0.34934277     0.20200
C947        C  0.32780012  0.86081262  0.39307076    -0.54600
C948        C  0.31099587  0.84312919  0.37454363     0.09400
C949        C  0.36070507  0.81990371  0.38772521    -0.54200
C950        C  0.34417025  0.80207242  0.36860238     0.09900
H951        H  0.37164738  0.88027019  0.33830216     0.14400
H952        H  0.31032839  0.80868763  0.33409784     0.00200
H953        H  0.32042760  0.87656282  0.41135180     0.14800
H954        H  0.37533641  0.80966357  0.40365366     0.14500
C955        C  0.34053533  0.84772684  0.29398171    -0.05600
C956        C  0.34089774  0.87774920  0.27943965    -0.33000
C957        C  0.34119087  0.88088842  0.24580400     0.36200
C958        C  0.34176881  0.85374273  0.22604869    -0.06000
C959        C  0.34082871  0.82373027  0.24044270    -0.32900
C960        C  0.34004012  0.82054689  0.27414466     0.36100
H961        H  0.34068889  0.89890001  0.29425032     0.16500
O962        O  0.34050640  0.91060714  0.23250291    -0.60400
H963        H  0.34122085  0.80264563  0.22553756     0.16500
O964        O  0.34035857  0.79080773  0.28742565    -0.60500
H965        H  0.32261723  0.78188337  0.28332448     0.43500
H966        H  0.32196033  0.91390846  0.22617860     0.43400
C967        C  0.34256702  0.78658475  0.13972089    -0.05600
C968        C  0.35979332  0.76872586  0.15877294    -0.33000
C969        C  0.36168116  0.73600979  0.15423979     0.36200
C970        C  0.34567096  0.72073054  0.13105498    -0.06000
C971        C  0.32849103  0.73854747  0.11192591    -0.32900
C972        C  0.32698047  0.77147922  0.11597171     0.36100
H973        H  0.37208123  0.78029484  0.17684254     0.16500
O974        O  0.37905938  0.71910242  0.17272717    -0.60400
H975        H  0.31623595  0.72688767  0.09388863     0.16500
O976        O  0.31106858  0.78893082  0.09596886    -0.60500
H977        H  0.29327198  0.77968857  0.09804864     0.43500
H978        H  0.39582533  0.72032657  0.16102211     0.43400
C979        C  0.34598025  0.63924443  0.20304071    -0.05600
C980        C  0.34828647  0.60884936  0.21649173    -0.33000
C981        C  0.34828878  0.60443738  0.25004888     0.36200
C982        C  0.34645382  0.63081507  0.27075200    -0.06000
C983        C  0.34376192  0.66103514  0.25728120    -0.32900
C984        C  0.34300889  0.66535356  0.22384031     0.36100
H985        H  0.34953724  0.58830938  0.20091854     0.16500
O986        O  0.34855976  0.57423886  0.26224359    -0.60400
H987        H  0.34250456  0.68165483  0.27274187     0.16500
O988        O  0.34050325  0.69543867  0.21193796    -0.60500
H989        H  0.32233312  0.70174748  0.21676802     0.43500
H990        H  0.36625367  0.56604652  0.25774828     0.43400
C991        C  0.34643344  0.69997798  0.35667526    -0.05600
C992        C  0.36970536  0.71726287  0.36201874    -0.33000
C993        C  0.36943087  0.75025186  0.36647795     0.36200
C994        C  0.34551124  0.76679523  0.36543529    -0.06000
C995        C  0.32235903  0.74943233  0.35985440    -0.32900
C996        C  0.32258564  0.71655015  0.35586729     0.36100
H997        H  0.38832914  0.70527019  0.36213981     0.16500
O998        O  0.39280264  0.76616153  0.36988455    -0.60400
H999        H  0.30371805  0.76124746  0.35901257     0.16500
O1000       O  0.29913228  0.70096018  0.35192938    -0.60500
H1001       H  0.29469026  0.69289161  0.37369240     0.43500
H1002       H  0.39926209  0.76094651  0.39193840     0.43400
C1003       C  0.22914320  0.64235464  0.12435562    -0.05600
C1004       C  0.24340927  0.63777996  0.15309832    -0.33000
C1005       C  0.27074157  0.63652355  0.15311010     0.36200
C1006       C  0.28445738  0.64004099  0.12399203    -0.06000
C1007       C  0.27022159  0.64308814  0.09491597    -0.32900
C1008       C  0.24272459  0.64413456  0.09491091     0.36100
H1009       H  0.23330574  0.63521082  0.17581790     0.16500
O1010       O  0.28389689  0.63082751  0.18161635    -0.60400
H1011       H  0.28044864  0.64593319  0.07232410     0.16500
O1012       O  0.22947888  0.64903392  0.06634942    -0.60500
H1013       H  0.22990103  0.62845567  0.05482876     0.43500
H1014       H  0.28130498  0.64989205  0.19516611     0.43400
C1015       C  0.16525580  0.78887691  0.14503387    -0.05600
C1016       C  0.17215223  0.77536546  0.11539936    -0.33000
C1017       C  0.17340639  0.74235439  0.11184663     0.36200
C1018       C  0.16753239  0.72241309  0.13805999    -0.06000
C1019       C  0.15987520  0.73598009  0.16736053    -0.32900
C1020       C  0.15921411  0.76894520  0.17117485     0.36100
H1021       H  0.17705275  0.79047326  0.09517340     0.16500
O1022       O  0.18103511  0.72974096  0.08295238    -0.60400
H1023       H  0.15368105  0.72109337  0.18706862     0.16500
O1024       O  0.15155183  0.78147466  0.20010189    -0.60500
H1025       H  0.16748975  0.78160596  0.21400565     0.43500
H1026       H  0.16555066  0.73142763  0.06840897     0.43400
C1027       C  0.22677480  0.86699415  0.14784627    -0.05600
C1028       C  0.24119117  0.89510814  0.15308701    -0.33000
C1029       C  0.26873896  0.89515934  0.15222684     0.36200
C1030       C  0.28214064  0.86688100  0.14567955    -0.06000
C1031       C  0.26759108  0.83918499  0.13976597    -0.32900
C1032       C  0.24028561  0.83903515  0.14071283     0.36100
H1033       H  0.23113524  0.91674359  0.15908886     0.16500
O1034       O  0.28233532  0.92221491  0.16030770    -0.60400
H1035       H  0.27747907  0.81724159  0.13491773     0.16500
O1036       O  0.22691340  0.81152531  0.13371826    -0.60500
H1037       H  0.23008353  0.79736695  0.15244773     0.43500
H1038       H  0.28212992  0.93536725  0.14047557     0.43400
C1039       C  0.16726438  0.85133453  0.29839797    -0.05600
C1040       C  0.14335173  0.85230449  0.28142835    -0.33000
C1041       C  0.14256965  0.85534344  0.24775019     0.36200
C1042       C  0.16603503  0.85700910  0.23025885    -0.06000
C1043       C  0.18995465  0.85570576  0.24713365    -0.32900
C1044       C  0.19072705  0.85301334  0.28092455     0.36100
H1045       H  0.12509646  0.85034894  0.29429519     0.16500
O1046       O  0.11876924  0.85516875  0.23204822    -0.60400
H1047       H  0.20816699  0.85750265  0.23415187     0.16500
O1048       O  0.21446039  0.85395320  0.29671082    -0.60500
H1049       H  0.22303618  0.83366933  0.29144026     0.43500
H1050       H  0.11065458  0.87570618  0.23747026     0.43400
C1051       C  0.22747533  0.84819627  0.38182706    -0.05600
C1052       C  0.24101915  0.82318153  0.39645868    -0.33000
C1053       C  0.26837922  0.82158014  0.39472791     0.36200
C1054       C  0.28231225  0.84499145  0.37783318    -0.06000
C1055       C  0.26882655  0.87054665  0.36411754    -0.32900
C1056       C  0.24155987  0.87235721  0.36626135     0.36100
H1057       H  0.23032218  0.80460410  0.40874972     0.16500
O1058       O  0.28148738  0.79764925  0.41022332    -0.60400
H1059       H  0.27945759  0.88884654  0.35131650     0.16500
O1060       O  0.22872432  0.89702841  0.35177151    -0.60500
H1061       H  0.22528608  0.91221764  0.36946168     0.43500
H1062       H  0.27497580  0.77770827  0.40021787     0.43400
C1063       C  0.16965312  0.63394353  0.27534327    -0.05600
C1064       C  0.16703597  0.60667330  0.25600737    -0.33000
C1065       C  0.16754517  0.60870131  0.22213976     0.36200
C1066       C  0.17071548  0.63840876  0.20694522    -0.06000
C1067       C  0.17440304  0.66530405  0.22642344    -0.32900
C1068       C  0.17323572  0.66346064  0.26008193     0.36100
H1069       H  0.16491952  0.58363071  0.26718920     0.16500
O1070       O  0.16548150  0.58140476  0.20428538    -0.60400
H1071       H  0.17764263  0.68819648  0.21565973     0.16500
O1072       O  0.17491142  0.69096502  0.27764824    -0.60500
H1073       H  0.15663301  0.69619140  0.28312409     0.43500
H1074       H  0.18350152  0.57688171  0.19714230     0.43400
C1075       C  0.23085441  0.62147137  0.35291600    -0.05600
C1076       C  0.24341480  0.62339592  0.32305859    -0.33000
C1077       C  0.27062526  0.62253197  0.32129210     0.36200
C1078       C  0.28586078  0.61988045  0.34976230    -0.06000
C1079       C  0.27330015  0.61694522  0.37960754    -0.32900
C1080       C  0.24597367  0.61794296  0.38134959     0.36100
H1081       H  0.23206208  0.62568316  0.30090046     0.16500
O1082       O  0.28208141  0.62443435  0.29155840    -0.60400
H1083       H  0.28473340  0.61520862  0.40174796     0.16500
O1084       O  0.23435699  0.61684307  0.41100989    -0.60500
H1085       H  0.23271047  0.63926327  0.41774459     0.43500
H1086       H  0.28314491  0.60227530  0.28381732     0.43400
C1087       C  0.17005255  0.70270435  0.36136115    -0.05600
C1088       C  0.14584715  0.71790036  0.36377096    -0.33000
C1089       C  0.14441555  0.75074479  0.36758236     0.36200
C1090       C  0.16750610  0.76915034  0.36930089    -0.06000
C1091       C  0.19173967  0.75394985  0.36690103    -0.32900
C1092       C  0.19315915  0.72107478  0.36268852     0.36100
H1093       H  0.12781928  0.70431462  0.36191981     0.16500
O1094       O  0.12033344  0.76476580  0.36748965    -0.60400
H1095       H  0.20975987  0.76752856  0.36841824     0.16500
O1096       O  0.21721662  0.70705741  0.36139468    -0.60500
H1097       H  0.22465090  0.71359488  0.34037327     0.43500
H1098       H  0.11266176  0.75950734  0.38873598     0.43400
C1099       C  0.09644327  0.56008498  0.41813653    -0.05600
C1100       C  0.08973224  0.58252688  0.39445507    -0.33000
C1101       C  0.10889285  0.59903597  0.37726604     0.36200
C1102       C  0.13577598  0.59314198  0.38281827    -0.06000
C1103       C  0.14249257  0.57041217  0.40637293    -0.32900
C1104       C  0.12325949  0.55403058  0.42377514     0.36100
H1105       H  0.06942290  0.58795246  0.38947689     0.16500
O1106       O  0.10105066  0.62117057  0.35497356    -0.60400
H1107       H  0.16258825  0.56536788  0.41231711     0.16500
O1108       O  0.13112840  0.53266222  0.44677735    -0.60500
H1109       H  0.13281961  0.51231213  0.43507571     0.43500
H1110       H  0.09653318  0.64019212  0.36772391     0.43400
C1111       C  0.13260750  0.89944730  0.12149499    -0.05600
C1112       C  0.11069667  0.91355446  0.13602495    -0.33000
C1113       C  0.09227980  0.93057211  0.11791295     0.36200
C1114       C  0.09495854  0.93378413  0.08429693    -0.06000
C1115       C  0.11682179  0.92040154  0.06956412    -0.32900
C1116       C  0.13519989  0.90301193  0.08763275     0.36100
H1117       H  0.10665326  0.91086426  0.16132518     0.16500
O1118       O  0.07189548  0.94455418  0.13356543    -0.60400
H1119       H  0.11916384  0.92232151  0.04365015     0.16500
O1120       O  0.15553818  0.88924963  0.07175874    -0.60500
H1121       H  0.14845849  0.86885796  0.06340987     0.43500
H1122       H  0.05876662  0.92743989  0.13667346     0.43400
C1123       C  0.41886664  0.57804856  0.06169716    -0.05600
C1124       C  0.42580163  0.60382107  0.08166556    -0.33000
C1125       C  0.40677880  0.62213134  0.09674893     0.36200
C1126       C  0.37981005  0.61531356  0.09208845    -0.06000
C1127       C  0.37293250  0.58999872  0.07136215    -0.32900
C1128       C  0.39199733  0.57158667  0.05638777     0.36100
H1129       H  0.44617778  0.60978266  0.08609789     0.16500
O1130       O  0.41485379  0.64685398  0.11609206    -0.60400
H1131       H  0.35282334  0.58333071  0.06703508     0.16500
O1132       O  0.38390908  0.54729817  0.03653768    -0.60500
H1133       H  0.38104909  0.52897561  0.05108772     0.43500
H1134       H  0.42029918  0.63709231  0.13686830     0.43400
C1135       C  0.09673888  0.57771651  0.06082306    -0.05600
C1136       C  0.11749849  0.56343468  0.07750820    -0.33000
C1137       C  0.13614905  0.58184896  0.09444838     0.36200
C1138       C  0.13470846  0.61536808  0.09437823    -0.06000
C1139       C  0.11458970  0.62934453  0.07569421    -0.32900
C1140       C  0.09568543  0.61089873  0.05953008     0.36100
H1141       H  0.11870136  0.53785710  0.07852225     0.16500
O1142       O  0.15568261  0.56680583  0.11130797    -0.60400
H1143       H  0.11263640  0.65456014  0.07347731     0.16500
O1144       O  0.07647501  0.62562643  0.04180713    -0.60500
H1145       H  0.06348128  0.63259634  0.05783874     0.43500
H1146       H  0.14718043  0.55766787  0.13063222     0.43400
C1147       C  0.37758550  0.87505182  0.40420622    -0.05600
C1148       C  0.37110732  0.89709685  0.42841942    -0.33000
C1149       C  0.39041859  0.91512076  0.44458879     0.36200
C1150       C  0.41707596  0.91145513  0.43701584    -0.06000
C1151       C  0.42360981  0.88894924  0.41353356    -0.32900
C1152       C  0.40436613  0.87112760  0.39723338     0.36100
H1153       H  0.35117364  0.90104337  0.43525665     0.16500
O1154       O  0.38288244  0.93568638  0.46831815    -0.60400
H1155       H  0.44384004  0.88531288  0.40719716     0.16500
O1156       O  0.41202923  0.84953203  0.37452491    -0.60500
H1157       H  0.41739768  0.86223050  0.35553918     0.43500
H1158       H  0.37779319  0.95531321  0.45680122     0.43400
C1159       C  0.41696162  0.55454505  0.41694903    -0.05600
C1160       C  0.39338380  0.56415760  0.43073408    -0.33000
C1161       C  0.37519215  0.58206925  0.41293084     0.36200
C1162       C  0.37950827  0.58921339  0.37991429    -0.06000
C1163       C  0.40334724  0.57953342  0.36650820    -0.32900
C1164       C  0.42172111  0.56244792  0.38444973     0.36100
H1165       H  0.38958023  0.55914354  0.45592458     0.16500
O1166       O  0.35361067  0.59315468  0.42847555    -0.60400
H1167       H  0.40885658  0.58623818  0.34238571     0.12900
O1168       O  0.44438845  0.55352947  0.36972315    -0.60500
H1169       H  0.45581786  0.57263481  0.37019606     0.43500
H1170       H  0.35856298  0.61471299  0.43597992     0.43400
C1171       C  0.13337729  0.87691216  0.40934722    -0.05600
C1172       C  0.11196997  0.86316795  0.42560688    -0.33000
C1173       C  0.09296206  0.88176940  0.44041908     0.36200
C1174       C  0.09478009  0.91500795  0.43967819    -0.06000
C1175       C  0.11635834  0.92904488  0.42450257    -0.32900
C1176       C  0.13540037  0.91044085  0.40941647     0.36100
H1177       H  0.10893080  0.83796530  0.42653231     0.16500
O1178       O  0.07290363  0.86707090  0.45643733    -0.60400
H1179       H  0.11807345  0.95458731  0.42344068     0.16500
O1180       O  0.15538754  0.92537473  0.39351239    -0.60500
H1181       H  0.16795671  0.93211746  0.41067670     0.43500
H1182       H  0.06072090  0.85930758  0.43929350     0.43400
C1183       C  0.41671533  0.92684692  0.08191140    -0.05600
C1184       C  0.39372718  0.91541598  0.06694165    -0.33000
C1185       C  0.37462247  0.89918260  0.08475590     0.36200
C1186       C  0.37745590  0.89546095  0.11866046    -0.06000
C1187       C  0.40075093  0.90701371  0.13332540    -0.32900
C1188       C  0.42015175  0.92222298  0.11535550     0.36100
H1189       H  0.39096311  0.91803652  0.04107741     0.16500
O1190       O  0.35342853  0.88645542  0.06859583    -0.60400
H1191       H  0.40505571  0.90339450  0.15857658     0.16500
O1192       O  0.44230837  0.93302954  0.13101166    -0.60500
H1193       H  0.45397826  0.91444970  0.13250406     0.43500
H1194       H  0.35948474  0.86589870  0.06001282     0.43400
O1195       O  0.45975555  0.91980227  0.94815157    -0.75400
O1196       O  0.42927655  0.95202464  0.97004449    -0.54400
C1197       C  0.43589780  0.92768908  0.95343604     0.78300
O1198       O  0.04990746  0.94450864  0.57234482    -0.60000
O1199       O  0.08051618  0.96714189  0.54013354    -0.53100
C1200       C  0.07373887  0.94909690  0.56366836     0.70300
O1201       O  0.46213346  0.94158475  0.57181316    -0.74600
O1202       O  0.43151892  0.96351797  0.53836498    -0.55200
C1203       C  0.43828046  0.94638021  0.56275711     0.76300
O1204       O  0.04834129  0.92491349  0.94458684    -0.59700
O1205       O  0.07982175  0.95665230  0.96749173    -0.52900
C1206       C  0.07234869  0.93291989  0.95000556     0.72900
Zr1207     Zr  0.00486384  0.94372712  0.95768327     2.54700
O1208       O  0.00333336  0.88629825  0.96251092    -0.80300
O1209       O  0.00447503  0.94077538  0.89886088    -0.93700
Zr1210     Zr  0.00557087  0.95883041  0.55560498     2.64700
O1211       O  0.50420868  0.89886378  0.56520754    -0.98700
O1212       O  0.00716809  0.97100510  0.61315059    -0.80700
O1213       O  0.48119976  0.94767612  0.50744481    -0.84100
O1214       O  0.03079346  0.95040775  0.50883555    -2.18800
O1215       O  0.04993550  0.54870099  0.92613866    -0.67500
O1216       O  0.08050026  0.52602090  0.95896138    -0.52100
C1217       C  0.07379391  0.54389043  0.93513224     0.71300
O1218       O  0.46328020  0.56629390  0.55131345    -0.60400
O1219       O  0.43217156  0.53310090  0.53027281    -0.52400
C1220       C  0.43933416  0.55782924  0.54637167     0.73100
O1221       O  0.05236894  0.56453103  0.55542897    -0.71800
O1222       O  0.08265938  0.53316694  0.53153971    -0.50500
C1223       C  0.07609296  0.55662135  0.54943866     0.74500
O1224       O  0.46238186  0.55044602  0.92881735    -0.67100
O1225       O  0.43163071  0.52655872  0.96006822    -0.54300
C1226       C  0.43855014  0.54480049  0.93673392     0.72800
Zr1227     Zr  0.50659688  0.53669868  0.94561787     2.77500
O1228       O  0.50578681  0.59421684  0.94159528    -0.97900
O1229       O  0.50547040  0.53193399  0.88698921    -0.78700
Zr1230     Zr  0.50682444  0.54672244  0.54055713     2.70100
O1231       O  0.00938178  0.60515220  0.53796890    -0.79900
O1232       O  0.50546694  0.55133854  0.59922512    -0.99000
Zr1233     Zr  0.45643930  0.99467601  0.49983326     2.21500
Zr1234     Zr  0.05641106  0.49531555  0.99842226     2.11100
O1235       O  0.03203961  0.54257328  0.99075903    -2.47700
O1236       O  0.48168764  0.54238481  0.99318293    -0.79700
O1237       O  0.03114669  0.98982115  0.95121839    -0.71900
O1238       O  0.48097194  0.50084787  0.54963040    -2.32900
O1239       O  0.47848152  0.98594116  0.95157945    -2.29100
O1240       O  0.03291562  0.50117799  0.54815188    -0.73700
H1241       H  0.04200280  0.93233600  0.51187794     0.78300
H1242       H  0.46986931  0.50406273  0.56805214     0.79400
H1243       H  0.04346837  0.56065042  0.98786334     0.81600
H1244       H  0.46699253  0.98317600  0.93305743     0.79200
H1245       H  0.49525375  0.98397449  0.61599519     0.42300
H1246       H  0.02430310  0.54004056  0.60790601     0.41200
H1247       H  0.50514233  0.61254610  0.55549082     0.40900
H1248       H  0.99324258  0.59981729  0.95052459     0.38800
H1249       H  0.00132201  0.54286682  0.87562489     0.42000
H1250       H  0.51909118  0.93360621  0.89298027     0.36800
H1251       H  0.50389798  0.87918157  0.98862661     0.42900
H1252       H  0.01901906  0.89343344  0.55401374     0.39300
H1253       H  0.52333688  0.60135422  0.94902991     0.44200
H1254       H  0.99734470  0.91944664  0.89382589     0.42900
H1255       H  0.50955287  0.89649137  0.58815638     0.43100
H1256       H  0.50169716  0.57392298  0.60331755     0.43400
C1257       C  0.15396512  0.61486899  0.86412351     0.86300
C1258       C  0.15164219  0.61160230  0.82698418    -0.53900
C1259       C  0.16847348  0.63071469  0.81035002     0.09300
C1260       C  0.18666682  0.65050022  0.83236060     0.20200
C1261       C  0.18307153  0.60760809  0.87118691    -0.54600
C1262       C  0.20000249  0.62625842  0.85432632     0.09400
C1263       C  0.15133854  0.65049572  0.87078520    -0.54200
C1264       C  0.16845487  0.66927070  0.85426643     0.09900
H1265       H  0.13769130  0.59589415  0.81497119     0.14400
H1266       H  0.20091432  0.66526368  0.81908033     0.00200
H1267       H  0.19005267  0.58825916  0.88601110     0.14800
H1268       H  0.13700403  0.65999822  0.88722266     0.14500
C1269       C  0.15066951  0.85829356  0.88254724     0.86300
C1270       C  0.14780814  0.82178550  0.88273519    -0.53900
C1271       C  0.16482101  0.80646805  0.86303753     0.09300
C1272       C  0.18361007  0.82895290  0.84544936     0.20200
C1273       C  0.17961318  0.86377167  0.89205756    -0.54600
C1274       C  0.19666142  0.84857918  0.87242991     0.09400
C1275       C  0.14870485  0.86747380  0.84666115    -0.54200
C1276       C  0.16591961  0.85229933  0.82719910     0.09900
H1277       H  0.13491381  0.80863972  0.89839996     0.14400
H1278       H  0.19760505  0.81645515  0.82977303     0.00200
H1279       H  0.18608199  0.87800902  0.91254140     0.14800
H1280       H  0.13473799  0.88457657  0.83746881     0.14500
C1281       C  0.15501286  0.87697633  0.63231719     0.86300
C1282       C  0.15110853  0.88089925  0.66901164    -0.53900
C1283       C  0.16642524  0.86183978  0.68771562     0.09300
C1284       C  0.18469785  0.84076497  0.66823629     0.20200
C1285       C  0.18470934  0.88305366  0.62826500    -0.54600
C1286       C  0.20005227  0.86372389  0.64678898     0.09400
C1287       C  0.15142659  0.84116633  0.62590715    -0.54200
C1288       C  0.16683213  0.82231378  0.64481908     0.09900
H1289       H  0.13757967  0.89770875  0.67925157     0.14400
H1290       H  0.19731657  0.82539508  0.68345588     0.00200
H1291       H  0.19358515  0.90071269  0.61301029     0.14800
H1292       H  0.13780958  0.83160551  0.60797335     0.14500
C1293       C  0.15647613  0.63334365  0.61491274     0.86300
C1294       C  0.15369523  0.66978794  0.61410470    -0.53900
C1295       C  0.17072440  0.68561609  0.63401002     0.09300
C1296       C  0.18947133  0.66376098  0.65263838     0.20200
C1297       C  0.18539996  0.62815821  0.60639857    -0.54600
C1298       C  0.20266670  0.64378423  0.62645755     0.09400
C1299       C  0.15453654  0.62455318  0.65082788    -0.54200
C1300       C  0.17188035  0.64006436  0.67065450     0.09900
H1301       H  0.14015343  0.68272010  0.59891325     0.14400
H1302       H  0.20365638  0.67684224  0.66830168     0.00200
H1303       H  0.19163013  0.61274164  0.58703581     0.14800
H1304       H  0.13993151  0.60804364  0.65974371     0.14500
C1305       C  0.35824312  0.61164591  0.86200569     0.86300
C1306       C  0.36069063  0.64726631  0.86921159    -0.53900
C1307       C  0.34352296  0.66557053  0.85217196     0.09300
C1308       C  0.32568733  0.64673279  0.82911227     0.20200
C1309       C  0.32914898  0.60339380  0.86764678    -0.54600
C1310       C  0.31221080  0.62192551  0.85035057     0.09400
C1311       C  0.36082958  0.60895602  0.82493452    -0.54200
C1312       C  0.34411372  0.62768466  0.80790291     0.09900
H1313       H  0.37470360  0.65708450  0.88652381     0.14400
H1314       H  0.31198553  0.66179992  0.81508014     0.00200
H1315       H  0.32244618  0.58427793  0.88304720     0.14800
H1316       H  0.37460701  0.59384335  0.81284909     0.14500
C1317       C  0.36095715  0.63226203  0.61396364     0.86300
C1318       C  0.36433411  0.62624802  0.65046184    -0.53900
C1319       C  0.34827608  0.64369301  0.66945652     0.09300
C1320       C  0.33001076  0.66546663  0.65019017     0.20200
C1321       C  0.33146304  0.62590945  0.60750422    -0.54600
C1322       C  0.31544214  0.64314413  0.62675908     0.09400
C1323       C  0.36413329  0.66833394  0.60992540    -0.54200
C1324       C  0.34806665  0.68556348  0.62898443     0.09900
H1325       H  0.37815639  0.60934728  0.66036513     0.14400
H1326       H  0.31666956  0.67974241  0.66510862     0.00200
H1327       H  0.32334699  0.60908026  0.59034251     0.14800
H1328       H  0.37822000  0.67927800  0.59389491     0.14500
C1329       C  0.35884438  0.87671361  0.63615947     0.86300
C1330       C  0.36233581  0.84181225  0.62681048    -0.53900
C1331       C  0.34603636  0.82138183  0.64222107     0.09300
C1332       C  0.32742938  0.83743683  0.66579875     0.20200
C1333       C  0.32946706  0.88346999  0.63039186    -0.54600
C1334       C  0.31307994  0.86271943  0.64585835     0.09400
C1335       C  0.36145374  0.87725556  0.67350400    -0.54200
C1336       C  0.34497074  0.85680868  0.68896769     0.09900
H1337       H  0.37680170  0.83387592  0.60968329     0.14400
H1338       H  0.31411679  0.82063834  0.67824944     0.00200
H1339       H  0.32228048  0.90291967  0.61575996     0.14800
H1340       H  0.37432703  0.89300025  0.68698649     0.14500
C1341       C  0.35444838  0.85449067  0.88444859     0.86300
C1342       C  0.35639991  0.86260145  0.84824344    -0.53900
C1343       C  0.33954543  0.84590833  0.82862132     0.09300
C1344       C  0.32162190  0.82305422  0.84718096     0.20200
C1345       C  0.32539660  0.86007255  0.89220674    -0.54600
C1346       C  0.30847067  0.84357635  0.87277691     0.09400
C1347       C  0.35739591  0.81826731  0.88602510    -0.54200
C1348       C  0.34053326  0.80182175  0.86616811     0.09900
H1349       H  0.37055379  0.87945582  0.83888203     0.14400
H1350       H  0.30737455  0.81002174  0.83157544     0.00200
H1351       H  0.31810820  0.87551361  0.91080759     0.14800
H1352       H  0.37184135  0.80673717  0.90131229     0.14500
C1353       C  0.33979886  0.84862839  0.79276047    -0.05600
C1354       C  0.34252153  0.87854763  0.77834363    -0.33000
C1355       C  0.34390575  0.88172158  0.74472777     0.36200
C1356       C  0.34308328  0.85458358  0.72476144    -0.06000
C1357       C  0.34002878  0.82474857  0.73914638    -0.32900
C1358       C  0.33832333  0.82159539  0.77276922     0.36100
H1359       H  0.34331388  0.89965680  0.79321959     0.16500
O1360       O  0.34563873  0.91153180  0.73176947    -0.60400
H1361       H  0.33962048  0.80359398  0.72432839     0.16500
O1362       O  0.33703548  0.79181563  0.78587346    -0.60500
H1363       H  0.31912955  0.78389630  0.78081396     0.43500
H1364       H  0.32759689  0.91674672  0.72466462     0.43400
C1365       C  0.34714030  0.78672497  0.63755464    -0.05600
C1366       C  0.36465385  0.76890169  0.65629012    -0.33000
C1367       C  0.36591862  0.73598777  0.65252643     0.36200
C1368       C  0.34891869  0.72046131  0.63061997    -0.06000
C1369       C  0.33193245  0.73830245  0.61121555    -0.32900
C1370       C  0.33116362  0.77141741  0.61431926     0.36100
H1371       H  0.37738648  0.78057998  0.67380619     0.16500
O1372       O  0.38350646  0.71909260  0.67071850    -0.60400
H1373       H  0.31920017  0.72652420  0.59376818     0.16500
O1374       O  0.31549761  0.78882844  0.59398049    -0.60500
H1375       H  0.29750384  0.78039137  0.59666504     0.43500
H1376       H  0.39967617  0.71871998  0.65776333     0.43400
C1377       C  0.34720681  0.63984001  0.70500132    -0.05600
C1378       C  0.34829670  0.60930462  0.71835353    -0.33000
C1379       C  0.34710511  0.60476908  0.75178113     0.36200
C1380       C  0.34482394  0.63108582  0.77240156    -0.06000
C1381       C  0.34352812  0.66152106  0.75909333    -0.32900
C1382       C  0.34444081  0.66604640  0.72569095     0.36100
H1383       H  0.34956067  0.58876669  0.70278241     0.16500
O1384       O  0.34680915  0.57453735  0.76390706    -0.60400
H1385       H  0.34219717  0.68204559  0.77468672     0.16500
O1386       O  0.34382888  0.69628635  0.71372417    -0.60500
H1387       H  0.32577973  0.70378327  0.71734744     0.43500
H1388       H  0.36464987  0.56628718  0.76045719     0.43400
C1389       C  0.34245005  0.70046971  0.85525276    -0.05600
C1390       C  0.36570773  0.71826634  0.85479667    -0.33000
C1391       C  0.36532050  0.75124554  0.85796313     0.36200
C1392       C  0.34138958  0.76695695  0.86191062    -0.06000
C1393       C  0.31804145  0.74926703  0.86098908    -0.32900
C1394       C  0.31842199  0.71625508  0.85803608     0.36100
H1395       H  0.38425015  0.70659053  0.85147505     0.16500
O1396       O  0.38824404  0.76809328  0.85522758    -0.60400
H1397       H  0.29944530  0.76098464  0.86306387     0.16500
O1398       O  0.29523306  0.69968567  0.85849361    -0.60500
H1399       H  0.29220051  0.69478664  0.88158392     0.43500
H1400       H  0.39816552  0.76399046  0.87551746     0.43400
C1401       C  0.23146425  0.64038032  0.62519642    -0.05600
C1402       C  0.24535801  0.63546947  0.65419079    -0.33000
C1403       C  0.27269262  0.63536569  0.65482327     0.36200
C1404       C  0.28659929  0.63999244  0.62605934    -0.06000
C1405       C  0.27277075  0.64329405  0.59676351    -0.32900
C1406       C  0.24534383  0.64355748  0.59616702     0.36100
H1407       H  0.23496238  0.63208139  0.67660037     0.16500
O1408       O  0.28564791  0.62991699  0.68351149    -0.60400
H1409       H  0.28327039  0.64699054  0.57448749     0.16500
O1410       O  0.23241556  0.64926396  0.56755652    -0.60500
H1411       H  0.23267716  0.62890309  0.55563502     0.43500
H1412       H  0.28357204  0.64949150  0.69643636     0.43400
C1413       C  0.16735540  0.78731131  0.64212221    -0.05600
C1414       C  0.17298354  0.77310145  0.61238608    -0.33000
C1415       C  0.17484441  0.74007298  0.60969925     0.36200
C1416       C  0.17068419  0.72071093  0.63688207    -0.06000
C1417       C  0.16464874  0.73498229  0.66645343    -0.32900
C1418       C  0.16345384  0.76801369  0.66936936     0.36100
H1419       H  0.17649716  0.78770902  0.59134489     0.16500
O1420       O  0.18150534  0.72690958  0.58067003    -0.60400
H1421       H  0.15986722  0.72060113  0.68709302     0.16500
O1422       O  0.15709041  0.78115726  0.69852775    -0.60500
H1423       H  0.17337864  0.78055450  0.71176650     0.43500
H1424       H  0.16564600  0.72857352  0.56676165     0.43400
C1425       C  0.22894445  0.86403851  0.64570219    -0.05600
C1426       C  0.24305696  0.89227521  0.65095669    -0.33000
C1427       C  0.27052513  0.89253324  0.65060261     0.36200
C1428       C  0.28410721  0.86424256  0.64478170    -0.06000
C1429       C  0.26985085  0.83612708  0.63982669    -0.32900
C1430       C  0.24255375  0.83585782  0.64010751     0.36100
H1431       H  0.23277668  0.91398790  0.65605278     0.16500
O1432       O  0.28389072  0.91991578  0.65814834    -0.60400
H1433       H  0.27992630  0.81413964  0.63575768     0.16500
O1434       O  0.22931349  0.80815110  0.63355495    -0.60500
H1435       H  0.23105814  0.79518566  0.65342416     0.43500
H1436       H  0.28097794  0.93424625  0.63950179     0.43400
C1437       C  0.16629076  0.85670893  0.79157618    -0.05600
C1438       C  0.14255766  0.85730694  0.77411497    -0.33000
C1439       C  0.14222882  0.85975177  0.74036421     0.36200
C1440       C  0.16591775  0.86162337  0.72349313    -0.06000
C1441       C  0.18960314  0.86185139  0.74091558    -0.32900
C1442       C  0.18995644  0.85931771  0.77467212     0.36100
H1443       H  0.12416291  0.85484566  0.78659303     0.16500
O1444       O  0.11875990  0.85812953  0.72399469    -0.60400
H1445       H  0.20796801  0.86392432  0.72828441     0.16500
O1446       O  0.21346317  0.86062265  0.79094898    -0.60500
H1447       H  0.22255932  0.84075600  0.78538606     0.43500
H1448       H  0.11077946  0.87924592  0.72676029     0.43400
C1449       C  0.22521406  0.85000980  0.87660572    -0.05600
C1450       C  0.23800137  0.82533455  0.89269148    -0.33000
C1451       C  0.26535417  0.82342161  0.89237500     0.36200
C1452       C  0.27991219  0.84625186  0.87547097    -0.06000
C1453       C  0.26715138  0.87172858  0.86064381    -0.32900
C1454       C  0.23989945  0.87390543  0.86149158     0.36100
H1455       H  0.22672392  0.80718066  0.90486227     0.16500
O1456       O  0.27784985  0.79977675  0.90911627    -0.60400
H1457       H  0.27834096  0.88962970  0.84797876     0.16500
O1458       O  0.22772807  0.89871684  0.84637114    -0.60500
H1459       H  0.22383518  0.91396416  0.86385327     0.43500
H1460       H  0.26982377  0.77958941  0.90155723     0.43400
C1461       C  0.16939011  0.63251230  0.77450959    -0.05600
C1462       C  0.16591855  0.60518354  0.75545102    -0.33000
C1463       C  0.16735408  0.60681202  0.72163357     0.36200
C1464       C  0.17237062  0.63614739  0.70638551    -0.06000
C1465       C  0.17684533  0.66290483  0.72566602    -0.32900
C1466       C  0.17450523  0.66159936  0.75907554     0.36100
H1467       H  0.16245554  0.58243776  0.76675824     0.16500
O1468       O  0.16440540  0.57952596  0.70392481    -0.60400
H1469       H  0.18133669  0.68547802  0.71494638     0.16500
O1470       O  0.17630952  0.68938311  0.77613507    -0.60500
H1471       H  0.15799174  0.69580418  0.77983480     0.43500
H1472       H  0.18229745  0.57096167  0.70194057     0.43400
C1473       C  0.22858499  0.62173665  0.85405538    -0.05600
C1474       C  0.24123328  0.62090641  0.82421934    -0.33000
C1475       C  0.26840117  0.61947931  0.82278075     0.36200
C1476       C  0.28344171  0.61898816  0.85153835    -0.06000
C1477       C  0.27078778  0.61860503  0.88143845    -0.32900
C1478       C  0.24348192  0.62018286  0.88283571     0.36100
H1479       H  0.22998718  0.62171577  0.80185800     0.16500
O1480       O  0.28002710  0.61919689  0.79307785    -0.60400
H1481       H  0.28214621  0.61862007  0.90371928     0.16500
O1482       O  0.23167914  0.62165304  0.91236094    -0.60500
H1483       H  0.22818180  0.64443305  0.91595024     0.43500
H1484       H  0.28594521  0.59713743  0.78992894     0.43400
C1485       C  0.16806898  0.70448043  0.85590957    -0.05600
C1486       C  0.14391948  0.71997995  0.85611146    -0.33000
C1487       C  0.14258493  0.75298773  0.85824526     0.36200
C1488       C  0.16571176  0.77134773  0.86005423    -0.06000
C1489       C  0.18992584  0.75594736  0.85913938    -0.32900
C1490       C  0.19125880  0.72281350  0.85702483     0.36100
H1491       H  0.12586889  0.70644539  0.85424214     0.16500
O1492       O  0.11856404  0.76715772  0.85700364    -0.60400
H1493       H  0.20794789  0.76953388  0.86079746     0.16500
O1494       O  0.21526050  0.70857541  0.85799848    -0.60500
H1495       H  0.22353184  0.71381839  0.83709480     0.43500
H1496       H  0.11018916  0.76196319  0.87785461     0.43400
C1497       C  0.09473582  0.56093741  0.91712399    -0.05600
C1498       C  0.08799333  0.57917115  0.88990270    -0.33000
C1499       C  0.10678487  0.59685669  0.87333600     0.36200
C1500       C  0.13348655  0.59551262  0.88253626    -0.06000
C1501       C  0.14008043  0.57802579  0.91044394    -0.32900
C1502       C  0.12113924  0.56100909  0.92759439     0.36100
H1503       H  0.06785651  0.58040975  0.88161482     0.16500
O1504       O  0.09868174  0.61556618  0.84810894    -0.60400
H1505       H  0.15973708  0.57817444  0.92019308     0.16500
O1506       O  0.12864141  0.54580441  0.95544094    -0.60500
H1507       H  0.13458065  0.52464836  0.94839192     0.43500
H1508       H  0.09452186  0.63628170  0.85798097     0.43400
C1509       C  0.13507108  0.89650115  0.61282753    -0.05600
C1510       C  0.10860917  0.89247957  0.62102633    -0.33000
C1511       C  0.08870784  0.90953948  0.60586360     0.36200
C1512       C  0.09465822  0.93147559  0.58126776    -0.06000
C1513       C  0.12091514  0.93497942  0.57213219    -0.32900
C1514       C  0.14090593  0.91756483  0.58712817     0.36100
H1515       H  0.10320429  0.87582482  0.63975561     0.16500
O1516       O  0.06348715  0.90442269  0.61557405    -0.60400
H1517       H  0.12609455  0.95087393  0.55265018     0.16500
O1518       O  0.16557521  0.92078823  0.57515985    -0.60500
H1519       H  0.16705505  0.90383266  0.55871155     0.43500
H1520       H  0.05761979  0.88496644  0.60405857     0.43400
C1521       C  0.41890348  0.57766793  0.56134586    -0.05600
C1522       C  0.42643048  0.60105768  0.58385333    -0.33000
C1523       C  0.40786841  0.61873874  0.60026690     0.36200
C1524       C  0.38085016  0.61364648  0.59440919    -0.06000
C1525       C  0.37338879  0.59090105  0.57100322    -0.32900
C1526       C  0.39203043  0.57311533  0.55463036     0.36100
H1527       H  0.44689869  0.60543655  0.58942793     0.16500
O1528       O  0.41640229  0.64123365  0.62202890    -0.60400
H1529       H  0.35320151  0.58624767  0.56492834     0.16500
O1530       O  0.38363496  0.55185563  0.53157159    -0.60500
H1531       H  0.37770470  0.53294834  0.54374476     0.43500
H1532       H  0.42218927  0.62930059  0.64143504     0.43400
C1533       C  0.09715927  0.57635482  0.56410221    -0.05600
C1534       C  0.12038276  0.56251135  0.57528776    -0.33000
C1535       C  0.13968206  0.58074959  0.59120094     0.36200
C1536       C  0.13667229  0.61389475  0.59482639    -0.06000
C1537       C  0.11332090  0.62746677  0.58307297    -0.32900
C1538       C  0.09382142  0.60911612  0.56808668     0.36100
H1539       H  0.12314099  0.53722128  0.57288874     0.16500
O1540       O  0.16118305  0.56573854  0.60379479    -0.60400
H1541       H  0.10900479  0.65211861  0.58648218     0.16500
O1542       O  0.07161419  0.62369202  0.55690141    -0.60500
H1543       H  0.06051070  0.62640351  0.57616569     0.43500
H1544       H  0.15571870  0.55780028  0.62524737     0.43400
C1545       C  0.37527718  0.87215190  0.90479850    -0.05600
C1546       C  0.36888864  0.89337466  0.92978956    -0.33000
C1547       C  0.38821824  0.91107779  0.94623392     0.36200
C1548       C  0.41482287  0.90768409  0.93837784    -0.06000
C1549       C  0.42134672  0.88536066  0.91468519    -0.32900
C1550       C  0.40205288  0.86796325  0.89797821     0.36100
H1551       H  0.34899616  0.89712331  0.93688928     0.16500
O1552       O  0.38073526  0.93133056  0.97026438    -0.60400
H1553       H  0.44156853  0.88180520  0.90826371     0.16500
O1554       O  0.40962747  0.84678382  0.87480847    -0.60500
H1555       H  0.41532888  0.85983257  0.85622205     0.43500
H1556       H  0.37498557  0.95081309  0.95896768     0.43400
C1557       C  0.41783901  0.56076802  0.91755270    -0.05600
C1558       C  0.39380364  0.56803561  0.93167045    -0.33000
C1559       C  0.37452412  0.58458249  0.91433996     0.36200
C1560       C  0.37836091  0.59265499  0.88150693    -0.06000
C1561       C  0.40302406  0.58644656  0.86817766    -0.32900
C1562       C  0.42236340  0.57052024  0.88555378     0.36100
H1563       H  0.39027655  0.56191167  0.95667368     0.16500
O1564       O  0.35238815  0.59345997  0.93017044    -0.60400
H1565       H  0.40816054  0.59478183  0.84442079     0.12900
O1566       O  0.44555985  0.56424062  0.87063922    -0.60500
H1567       H  0.45580245  0.58427060  0.87192419     0.43500
H1568       H  0.35638313  0.61485670  0.93889896     0.43400
C1569       C  0.13114531  0.87705202  0.90271015    -0.05600
C1570       C  0.10786685  0.86295152  0.91401295    -0.33000
C1571       C  0.08884608  0.88074223  0.92959622     0.36200
C1572       C  0.09270285  0.91340793  0.93471266    -0.06000
C1573       C  0.11575999  0.92770424  0.92369352    -0.32900
C1574       C  0.13461380  0.91006039  0.90742101     0.36100
H1575       H  0.10327420  0.83835396  0.90975868     0.16500
O1576       O  0.06660071  0.86574668  0.94008231    -0.60400
H1577       H  0.11878661  0.95296148  0.92662520     0.16500
O1578       O  0.15576814  0.92565645  0.89471376    -0.60500
H1579       H  0.16679164  0.93203333  0.91355519     0.43500
H1580       H  0.05527558  0.86334136  0.92057453     0.43400
C1581       C  0.41732705  0.93076635  0.58184740    -0.05600
C1582       C  0.39378786  0.92099154  0.56688197    -0.33000
C1583       C  0.37459136  0.90432049  0.58419319     0.36200
C1584       C  0.37814849  0.89793415  0.61761326    -0.06000
C1585       C  0.40194522  0.90782356  0.63221008    -0.32900
C1586       C  0.42109595  0.92419112  0.61491610     0.36100
H1587       H  0.39058656  0.92532875  0.54133577     0.16500
O1588       O  0.35259888  0.89398203  0.56792001    -0.60400
H1589       H  0.40677560  0.90199751  0.65690616     0.16500
O1590       O  0.44330610  0.93431011  0.63094495    -0.60500
H1591       H  0.45390329  0.91503972  0.63444169     0.43500
H1592       H  0.35685600  0.87249046  0.56004995     0.43400
O1593       O  0.96096700  0.42642727  0.44457960    -0.75400
O1594       O  0.93114952  0.45808161  0.46859174    -0.54400
C1595       C  0.93725089  0.43462551  0.45042698     0.78300
O1596       O  0.55141035  0.44329864  0.07026112    -0.60000
O1597       O  0.58200808  0.46628157  0.03803117    -0.53100
C1598       C  0.57521464  0.44920078  0.06227750     0.70300
O1599       O  0.96201916  0.44313453  0.07081805    -0.74600
O1600       O  0.93107557  0.46658613  0.03895818    -0.55200
C1601       C  0.93806286  0.44873313  0.06272714     0.76300
O1602       O  0.54946774  0.41995963  0.45039132    -0.59700
O1603       O  0.58053832  0.45359924  0.47123657    -0.52900
C1604       C  0.57343001  0.42887002  0.45504193     0.72900
Zr1605     Zr  0.50530813  0.43801176  0.46288370     2.54700
O1606       O  0.50442687  0.38098851  0.47149943    -0.80300
O1607       O  0.50470037  0.43155690  0.40437317    -0.93700
Zr1608     Zr  0.50702171  0.45384525  0.05133522     2.64700
O1609       O  0.00696649  0.40206686  0.06831007    -0.98700
O1610       O  0.50643750  0.45758986  0.11002101    -0.80700
O1611       O  0.97993389  0.44973463  0.00709498    -0.84100
O1612       O  0.53224649  0.44809358  0.00408601    -2.18800
O1613       O  0.55178786  0.04710575  0.42842401    -0.67500
O1614       O  0.58221572  0.02499563  0.46180111    -0.52100
C1615       C  0.57565956  0.04211770  0.43731362     0.71300
O1616       O  0.96309190  0.06827801  0.05148826    -0.60400
O1617       O  0.93201897  0.03632333  0.02842529    -0.52400
C1618       C  0.93906207  0.06049698  0.04540161     0.73100
O1619       O  0.54864644  0.06374994  0.05498213    -0.71800
O1620       O  0.57945945  0.03278925  0.03175988    -0.50500
C1621       C  0.57254722  0.05627463  0.04953162     0.74500
O1622       O  0.96087172  0.04793141  0.42666096    -0.67100
O1623       O  0.93009665  0.02703479  0.46013677    -0.54300
C1624       C  0.93704883  0.04352423  0.43548719     0.72800
Zr1625     Zr  0.00505670  0.03489188  0.44505248     2.77500
O1626       O  0.00408147  0.09121849  0.43259267    -0.97900
O1627       O  0.00557381  0.02067807  0.38804866    -0.78700
Zr1628     Zr  0.00712129  0.04853576  0.04098158     2.70100
O1629       O  0.50583318  0.10296999  0.03245179    -0.79900
O1630       O  0.00728566  0.05230883  0.09976257    -0.99000
Zr1631     Zr  0.95524712  0.49674070  0.99895344     2.21500
Zr1632     Zr  0.55742043  0.99483634  0.50128373     2.11100
O1633       O  0.53236109  0.04167978  0.49341982    -2.47700
O1634       O  0.97951424  0.04326768  0.49170696    -0.79700
O1635       O  0.53103739  0.48405512  0.45345020    -0.71900
O1636       O  0.98121958  0.00235402  0.04788647    -2.32900
O1637       O  0.98104340  0.49063798  0.45152326    -2.29100
O1638       O  0.53050348  0.00015096  0.04799293    -0.73700
H1639       H  0.54357853  0.43004302  0.00630941     0.78300
H1640       H  0.97009562  0.00487742  0.06642136     0.79400
H1641       H  0.54359940  0.05996807  0.49073217     0.81600
H1642       H  0.96954756  0.48885311  0.43286803     0.79200
H1643       H  0.00887490  0.45655387  0.12294614     0.42300
H1644       H  0.48709313  0.04154728  0.10569018     0.41200
H1645       H  0.99679070  0.11006540  0.01607575     0.40900
H1646       H  0.50312271  0.08772344  0.40531787     0.38800
H1647       H  0.49896578  0.03217272  0.37713342     0.42000
H1648       H  0.98953548  0.45012544  0.39176759     0.36800
H1649       H  0.00425292  0.38431636  0.49020058     0.42900
H1650       H  0.49523125  0.38923398  0.03679529     0.39300
H1651       H  0.02009668  0.10012962  0.44289615     0.44200
H1652       H  0.49917844  0.40929812  0.40078286     0.42900
H1653       H  0.02222710  0.39347685  0.05686348     0.43100
H1654       H  0.98947546  0.05917242  0.10542288     0.43400
C1655       C  0.65619069  0.11063218  0.36384394     0.86300
C1656       C  0.65292881  0.10878163  0.32670794    -0.53900
C1657       C  0.66913185  0.12876137  0.31012017     0.09300
C1658       C  0.68760174  0.14814993  0.33215381     0.20200
C1659       C  0.68563575  0.10381592  0.36959231    -0.54600
C1660       C  0.70193005  0.12345441  0.35270043     0.09400
C1661       C  0.65339197  0.14597820  0.37204225    -0.54200
C1662       C  0.66971029  0.16557863  0.35548437     0.09900
H1663       H  0.63867813  0.09344377  0.31471431     0.14400
H1664       H  0.70109344  0.16407446  0.31895736     0.00200
H1665       H  0.69331530  0.08460594  0.38401563     0.14800
H1666       H  0.63940121  0.15480018  0.38931588     0.14500
C1667       C  0.65124455  0.35397001  0.38607711     0.86300
C1668       C  0.64797244  0.31741473  0.38550163    -0.53900
C1669       C  0.66506247  0.30223970  0.36583421     0.09300
C1670       C  0.68407147  0.32462665  0.34867786     0.20200
C1671       C  0.68024474  0.35904350  0.39557367    -0.54600
C1672       C  0.69722988  0.34385972  0.37583172     0.09400
C1673       C  0.64950671  0.36363856  0.35023457    -0.54200
C1674       C  0.66664945  0.34839469  0.33055805     0.09900
H1675       H  0.63460179  0.30393168  0.40021673     0.14400
H1676       H  0.69797436  0.31188549  0.33310686     0.00200
H1677       H  0.68681828  0.37350851  0.41584192     0.14800
H1678       H  0.63578068  0.38113251  0.34128760     0.14500
C1679       C  0.65343126  0.37965413  0.13711278     0.86300
C1680       C  0.65107823  0.38153791  0.17420863    -0.53900
C1681       C  0.66674699  0.36119460  0.19081610     0.09300
C1682       C  0.68430129  0.34144097  0.16887700     0.20200
C1683       C  0.68272082  0.38626149  0.13176695    -0.54600
C1684       C  0.69885769  0.36584113  0.14782765     0.09400
C1685       C  0.64941932  0.34434587  0.12865294    -0.54200
C1686       C  0.66540921  0.32436187  0.14545672     0.09900
H1687       H  0.63932323  0.39869290  0.18675616     0.14400
H1688       H  0.69737349  0.32517418  0.18239213     0.00200
H1689       H  0.69016359  0.40513058  0.11656307     0.14800
H1690       H  0.63484858  0.33591255  0.11128671     0.14500
C1691       C  0.65307586  0.13447447  0.11477225     0.86300
C1692       C  0.64904966  0.17074174  0.11432345    -0.53900
C1693       C  0.66582044  0.18734614  0.13394067     0.09300
C1694       C  0.68561167  0.16631385  0.15200924     0.20200
C1695       C  0.68210530  0.13098023  0.10547392    -0.54600
C1696       C  0.69923446  0.14734934  0.12522100     0.09400
C1697       C  0.65208419  0.12526188  0.15062966    -0.54200
C1698       C  0.66909038  0.14158422  0.17026357     0.09900
H1699       H  0.63488319  0.18285332  0.09922637     0.14400
H1700       H  0.69946255  0.18000706  0.16758555     0.00200
H1701       H  0.68856170  0.11632724  0.08564695     0.14800
H1702       H  0.63828301  0.10783397  0.15969538     0.14500
C1703       C  0.86068703  0.11465278  0.35833780     0.86300
C1704       C  0.86260039  0.14975054  0.36826555    -0.53900
C1705       C  0.84540100  0.16919771  0.35245883     0.09300
C1706       C  0.82800131  0.15157345  0.32756277     0.20200
C1707       C  0.83170036  0.10571677  0.36290500    -0.54600
C1708       C  0.81462439  0.12500759  0.34681300     0.09400
C1709       C  0.86400458  0.11530327  0.32116581    -0.54200
C1710       C  0.84685168  0.13445155  0.30523270     0.09900
H1711       H  0.87627386  0.15827320  0.38664046     0.14400
H1712       H  0.81428693  0.16696137  0.31402638     0.00200
H1713       H  0.82527613  0.08584116  0.37751893     0.14800
H1714       H  0.87835953  0.10236169  0.30775758     0.14500
C1715       C  0.85871269  0.13516684  0.11036909     0.86300
C1716       C  0.86111702  0.12881729  0.14694759    -0.53900
C1717       C  0.84540306  0.14697325  0.16565693     0.09300
C1718       C  0.82784074  0.16924488  0.14595744     0.20200
C1719       C  0.82907630  0.12978341  0.10300104    -0.54600
C1720       C  0.81297309  0.14747392  0.12209335     0.09400
C1721       C  0.86276042  0.17111092  0.10670626    -0.54200
C1722       C  0.84661826  0.18873297  0.12523402     0.09900
H1723       H  0.87445406  0.11155854  0.15720801     0.14400
H1724       H  0.81483286  0.18408378  0.16078341     0.00200
H1725       H  0.82117240  0.11287560  0.08571827     0.14800
H1726       H  0.87734316  0.18168981  0.09109444     0.14500
C1727       C  0.85768430  0.37952542  0.13511565     0.86300
C1728       C  0.86124243  0.34489148  0.12500352    -0.53900
C1729       C  0.84473821  0.32414906  0.13962564     0.09300
C1730       C  0.82597681  0.33963901  0.16346045     0.20200
C1731       C  0.82836583  0.38642918  0.12917620    -0.54600
C1732       C  0.81179736  0.36534972  0.14383076     0.09400
C1733       C  0.86001115  0.37926007  0.17247289    -0.54200
C1734       C  0.84333157  0.35850395  0.18735311     0.09900
H1735       H  0.87582781  0.33735995  0.10783415     0.14400
H1736       H  0.81265811  0.32254703  0.17548158     0.00200
H1737       H  0.82131029  0.40627988  0.11507263     0.14800
H1738       H  0.87288747  0.39485457  0.18623726     0.14500
C1739       C  0.85506527  0.36065253  0.38277868     0.86300
C1740       C  0.85634551  0.36709510  0.34616953    -0.53900
C1741       C  0.83962802  0.34903705  0.32766905     0.09300
C1742       C  0.82277536  0.32620527  0.34774653     0.20200
C1743       C  0.82599500  0.36536023  0.39099517    -0.54600
C1744       C  0.80930715  0.34712344  0.37280475     0.09400
C1745       C  0.85885530  0.32464709  0.38633644    -0.54200
C1746       C  0.84243921  0.30637742  0.36750163     0.09900
H1747       H  0.86977924  0.38422338  0.33577599     0.14400
H1748       H  0.80863545  0.31239262  0.33279990     0.00200
H1749       H  0.81867898  0.38080061  0.40960824     0.14800
H1750       H  0.87309932  0.31486082  0.40306316     0.14500
C1751       C  0.83854946  0.35114294  0.29158377    -0.05600
C1752       C  0.83974825  0.38092412  0.27651608    -0.33000
C1753       C  0.84041319  0.38363480  0.24276921     0.36200
C1754       C  0.84077039  0.35625894  0.22320653    -0.06000
C1755       C  0.83846655  0.32652393  0.23810843    -0.32900
C1756       C  0.83718276  0.32380928  0.27193766     0.36100
H1757       H  0.83997630  0.40229328  0.29100690     0.16500
O1758       O  0.84034290  0.41325621  0.22920576    -0.60400
H1759       H  0.83841700  0.30519604  0.22355260     0.16500
O1760       O  0.83639189  0.29422408  0.28554428    -0.60500
H1761       H  0.81842427  0.28610135  0.28123463     0.43500
H1762       H  0.82222849  0.41629024  0.22100512     0.43400
C1763       C  0.84585995  0.28965367  0.13403637    -0.05600
C1764       C  0.86576236  0.27217848  0.14905356    -0.33000
C1765       C  0.86689298  0.23931650  0.14508196     0.36200
C1766       C  0.84763092  0.22355512  0.12648413    -0.06000
C1767       C  0.82824737  0.24102720  0.11058293    -0.32900
C1768       C  0.82741481  0.27410704  0.11391239     0.36100
H1769       H  0.88025525  0.28405311  0.16419101     0.16500
O1770       O  0.88622095  0.22263692  0.16054200    -0.60400
H1771       H  0.81372893  0.22895037  0.09563792     0.16500
O1772       O  0.80954942  0.29132286  0.09632616    -0.60500
H1773       H  0.79252728  0.28001972  0.09798726     0.43500
H1774       H  0.90031644  0.22060663  0.14446508     0.43400
C1775       C  0.84505742  0.14433199  0.20147608    -0.05600
C1776       C  0.84534811  0.11420576  0.21574578    -0.33000
C1777       C  0.84595297  0.11070388  0.24936567     0.36200
C1778       C  0.84603385  0.13761279  0.26947871    -0.06000
C1779       C  0.84521366  0.16777497  0.25532175    -0.32900
C1780       C  0.84480896  0.17129557  0.22157517     0.36100
H1781       H  0.84493577  0.09317841  0.20074022     0.16500
O1782       O  0.84532482  0.08084202  0.26236473    -0.60400
H1783       H  0.84549552  0.18870820  0.27047648     0.16500
O1784       O  0.84576818  0.20113054  0.20857660    -0.60500
H1785       H  0.82815872  0.21009445  0.21190295     0.43500
H1786       H  0.86297241  0.07208504  0.25875357     0.43400
C1787       C  0.84417188  0.20404407  0.35833414    -0.05600
C1788       C  0.86722868  0.22116573  0.36534152    -0.33000
C1789       C  0.86701183  0.25411569  0.36936728     0.36200
C1790       C  0.84338816  0.27096718  0.36584269    -0.06000
C1791       C  0.82031563  0.25367416  0.35922492    -0.32900
C1792       C  0.82042945  0.22068202  0.35617842     0.36100
H1793       H  0.88581320  0.20915617  0.36675294     0.16500
O1794       O  0.89037296  0.26962799  0.37442568    -0.60400
H1795       H  0.80184060  0.26556341  0.35651286     0.16500
O1796       O  0.79704755  0.20509992  0.35148435    -0.60500
H1797       H  0.79073634  0.20006729  0.37346498     0.43500
H1798       H  0.89556301  0.26463990  0.39703111     0.43400
C1799       C  0.72831756  0.14547527  0.12304588    -0.05600
C1800       C  0.74298050  0.14171601  0.15163841    -0.33000
C1801       C  0.77036015  0.14148577  0.15134779     0.36200
C1802       C  0.78383597  0.14481964  0.12201200    -0.06000
C1803       C  0.76924738  0.14758446  0.09313593    -0.32900
C1804       C  0.74168880  0.14802537  0.09349233     0.36100
H1805       H  0.73315018  0.13890355  0.17451265     0.16500
O1806       O  0.78379577  0.13688120  0.17985324    -0.60400
H1807       H  0.77923858  0.15056004  0.07039950     0.16500
O1808       O  0.72813877  0.15304174  0.06517356    -0.60500
H1809       H  0.72817212  0.13241347  0.05373124     0.43500
H1810       H  0.78161744  0.15665322  0.19243740     0.43400
C1811       C  0.66441149  0.28933374  0.14213543    -0.05600
C1812       C  0.66842730  0.27498310  0.11200796    -0.33000
C1813       C  0.66880677  0.24183093  0.10904348     0.36200
C1814       C  0.66526763  0.22252526  0.13644874    -0.06000
C1815       C  0.66033083  0.23697754  0.16625284    -0.32900
C1816       C  0.66010457  0.27004762  0.16929152     0.36100
H1817       H  0.67176977  0.28951651  0.09087123     0.16500
O1818       O  0.67346937  0.22849131  0.07947496    -0.60400
H1819       H  0.65586462  0.22270496  0.18708895     0.16500
O1820       O  0.65435042  0.28333923  0.19857850    -0.60500
H1821       H  0.67085655  0.28262644  0.21137399     0.43500
H1822       H  0.65637691  0.22864739  0.06789087     0.43400
C1823       C  0.72765017  0.36646251  0.14456395    -0.05600
C1824       C  0.74173681  0.39504542  0.14764767    -0.33000
C1825       C  0.76916640  0.39546633  0.14634412     0.36200
C1826       C  0.78280676  0.36692209  0.14217671    -0.06000
C1827       C  0.76852609  0.33865687  0.13842850    -0.32900
C1828       C  0.74125578  0.33827903  0.13908472     0.36100
H1829       H  0.73151020  0.41694097  0.15204295     0.16500
O1830       O  0.78242887  0.42339856  0.15161813    -0.60400
H1831       H  0.77851157  0.31652421  0.13541153     0.16500
O1832       O  0.72801785  0.31043236  0.13308799    -0.60500
H1833       H  0.73142071  0.29683919  0.15218727     0.43500
H1834       H  0.78019255  0.43571065  0.13138708     0.43400
C1835       C  0.66718231  0.35303325  0.29486276    -0.05600
C1836       C  0.64350653  0.35606071  0.27764207    -0.33000
C1837       C  0.64308854  0.35891051  0.24394276     0.36200
C1838       C  0.66668419  0.35878485  0.22666088    -0.06000
C1839       C  0.69038901  0.35613447  0.24379461    -0.32900
C1840       C  0.69081019  0.35328302  0.27759629     0.36100
H1841       H  0.62508217  0.35527328  0.29024114     0.16500
O1842       O  0.61941317  0.35979717  0.22798732    -0.60400
H1843       H  0.70872848  0.35665523  0.23098825     0.16500
O1844       O  0.71445321  0.35228453  0.29357455    -0.60500
H1845       H  0.72225673  0.33172348  0.28758347     0.43500
H1846       H  0.61214239  0.38095096  0.23277020     0.43400
C1847       C  0.72585071  0.34660250  0.37890801    -0.05600
C1848       C  0.74013180  0.32155370  0.39216004    -0.33000
C1849       C  0.76755122  0.32173358  0.39109232     0.36200
C1850       C  0.78071153  0.34743462  0.37677869    -0.06000
C1851       C  0.76641706  0.37315740  0.36490583    -0.32900
C1852       C  0.73909002  0.37285693  0.36592997     0.36100
H1853       H  0.73000564  0.30171572  0.40304288     0.16500
O1854       O  0.78148571  0.29753552  0.40505493    -0.60400
H1855       H  0.77646658  0.39306062  0.35397860     0.16500
O1856       O  0.72543391  0.39756027  0.35272854    -0.60500
H1857       H  0.72176795  0.41182536  0.37112770     0.43500
H1858       H  0.77303483  0.27749633  0.39774893     0.43400
C1859       C  0.66910351  0.13171081  0.27427891    -0.05600
C1860       C  0.66647944  0.10471355  0.25459408    -0.33000
C1861       C  0.66706156  0.10723198  0.22078431     0.36200
C1862       C  0.67023179  0.13720347  0.20603544    -0.06000
C1863       C  0.67364481  0.16382576  0.22588396    -0.32900
C1864       C  0.67241735  0.16147900  0.25945879     0.36100
H1865       H  0.66438215  0.08151321  0.26544144     0.16500
O1866       O  0.66505459  0.08015257  0.20257951    -0.60400
H1867       H  0.67657944  0.18692464  0.21549776     0.16500
O1868       O  0.67363961  0.18876501  0.27739902    -0.60500
H1869       H  0.65522516  0.19542672  0.27977674     0.43500
H1870       H  0.68311311  0.07564668  0.19557959     0.43400
C1871       C  0.73077674  0.12037956  0.35169952    -0.05600
C1872       C  0.74320407  0.12280812  0.32173540    -0.33000
C1873       C  0.77043314  0.12320261  0.31979769     0.36200
C1874       C  0.78583101  0.12131324  0.34816227    -0.06000
C1875       C  0.77348739  0.11759324  0.37807536    -0.32900
C1876       C  0.74613592  0.11727235  0.38000977     0.36100
H1877       H  0.73171937  0.12465564  0.29963686     0.16500
O1878       O  0.78174220  0.12566050  0.29000667    -0.60400
H1879       H  0.78507816  0.11624662  0.40012301     0.16500
O1880       O  0.73472198  0.11525949  0.40975091    -0.60500
H1881       H  0.73024128  0.13732411  0.41552554     0.43500
H1882       H  0.78764381  0.10399505  0.28471602     0.43400
C1883       C  0.66879269  0.20055461  0.35816265    -0.05600
C1884       C  0.64472159  0.21598470  0.35484057    -0.33000
C1885       C  0.64323215  0.24902646  0.35703026     0.36200
C1886       C  0.66606886  0.26721041  0.36263362    -0.06000
C1887       C  0.69019903  0.25176889  0.36531400    -0.32900
C1888       C  0.69168009  0.21870293  0.36322827     0.36100
H1889       H  0.62703475  0.20236650  0.35005044     0.16500
O1890       O  0.61960888  0.26345012  0.35200661    -0.60400
H1891       H  0.70795770  0.26529153  0.36954225     0.16500
O1892       O  0.71534896  0.20425070  0.36784388    -0.60500
H1893       H  0.72499026  0.20761963  0.34747773     0.43500
H1894       H  0.60959694  0.25964505  0.37201556     0.43400
C1895       C  0.59675246  0.05775299  0.41805550    -0.05600
C1896       C  0.58987189  0.07947522  0.39373485    -0.33000
C1897       C  0.60888672  0.09578626  0.37609220     0.36200
C1898       C  0.63583142  0.09058153  0.38194331    -0.06000
C1899       C  0.64273225  0.06827023  0.40586993    -0.32900
C1900       C  0.62361629  0.05198866  0.42364802     0.36100
H1901       H  0.56951723  0.08448111  0.38855405     0.16500
O1902       O  0.60082622  0.11701193  0.35300458    -0.60400
H1903       H  0.66287850  0.06349312  0.41180319     0.16500
O1904       O  0.63162312  0.03096071  0.44690648    -0.60500
H1905       H  0.63445138  0.01080308  0.43522889     0.43500
H1906       H  0.59582310  0.13627077  0.36506878     0.43400
C1907       C  0.63443372  0.40073711  0.11816621    -0.05600
C1908       C  0.61058821  0.40975865  0.13209357    -0.33000
C1909       C  0.59181936  0.42659105  0.11464332     0.36200
C1910       C  0.59606974  0.43441043  0.08209074    -0.06000
C1911       C  0.61966156  0.42558105  0.06782752    -0.32900
C1912       C  0.63841294  0.40830671  0.08522307     0.36100
H1913       H  0.60543364  0.40271610  0.15626194     0.16500
O1914       O  0.56932645  0.43538677  0.12984997    -0.60400
H1915       H  0.62308887  0.43074892  0.04257931     0.16500
O1916       O  0.66017220  0.39824289  0.06933388    -0.60500
H1917       H  0.65581274  0.37652350  0.06179009     0.43500
H1918       H  0.55815134  0.41607295  0.13016081     0.43400
C1919       C  0.91823690  0.08044743  0.05976439    -0.05600
C1920       C  0.92499073  0.10200123  0.08435097    -0.33000
C1921       C  0.90598161  0.11975562  0.10000869     0.36200
C1922       C  0.87916098  0.11644327  0.09148177    -0.06000
C1923       C  0.87251070  0.09582005  0.06580930    -0.32900
C1924       C  0.89167333  0.07800824  0.05007899     0.36100
H1925       H  0.94518221  0.10484936  0.09212474     0.16500
O1926       O  0.91389821  0.14057327  0.12377133    -0.60400
H1927       H  0.85255632  0.09324336  0.05743172     0.16500
O1928       O  0.88420309  0.05900332  0.02463165    -0.60500
H1929       H  0.87683501  0.03958277  0.03458424     0.43500
H1930       H  0.91984841  0.12725892  0.14213979     0.43400
C1931       C  0.59336232  0.07644338  0.06480767    -0.05600
C1932       C  0.61805055  0.06388235  0.07224015    -0.33000
C1933       C  0.63749326  0.08231070  0.08782610     0.36200
C1934       C  0.63311171  0.11465685  0.09500532    -0.06000
C1935       C  0.60805434  0.12674396  0.08794839    -0.32900
C1936       C  0.58855080  0.10823613  0.07303689     0.36100
H1937       H  0.62206491  0.03929966  0.06693187     0.16500
O1938       O  0.66053402  0.06811247  0.09647420    -0.60400
H1939       H  0.60265584  0.15033806  0.09503595     0.16500
O1940       O  0.56487869  0.12186882  0.06615652    -0.60500
H1941       H  0.55496818  0.12074105  0.08657814     0.43500
H1942       H  0.65751662  0.05918650  0.11828317     0.43400
C1943       C  0.87585254  0.37991130  0.40173612    -0.05600
C1944       C  0.86948719  0.40357407  0.42434178    -0.33000
C1945       C  0.88899119  0.42145435  0.44041751     0.36200
C1946       C  0.91572557  0.41581395  0.43456178    -0.06000
C1947       C  0.92205608  0.39198525  0.41237159    -0.32900
C1948       C  0.90265154  0.37456663  0.39593156     0.36100
H1949       H  0.84948292  0.40914629  0.42958997     0.16500
O1950       O  0.88151166  0.44419511  0.46201036    -0.60400
H1951       H  0.94228781  0.38693073  0.40715602     0.16500
O1952       O  0.91019579  0.35189858  0.37428380    -0.60500
H1953       H  0.91519104  0.36367200  0.35454410     0.43500
H1954       H  0.87717418  0.46297201  0.44866623     0.43400
C1955       C  0.91643144  0.05896772  0.41573642    -0.05600
C1956       C  0.89562176  0.07444015  0.43058143    -0.33000
C1957       C  0.87755554  0.09200317  0.41220474     0.36200
C1958       C  0.87954405  0.09371823  0.37808352    -0.06000
C1959       C  0.89979449  0.07653552  0.36346638    -0.32900
C1960       C  0.91819347  0.05989381  0.38189736     0.36100
H1961       H  0.89392418  0.07396945  0.45665623     0.16500
O1962       O  0.85800357  0.10757343  0.42789544    -0.60400
H1963       H  0.90236255  0.07594958  0.33775224     0.12900
O1964       O  0.93765039  0.04395493  0.36640184    -0.60500
H1965       H  0.95076193  0.06038465  0.36064257     0.43500
H1966       H  0.86644385  0.12669478  0.43743745     0.43400
C1967       C  0.63205370  0.37290734  0.40688245    -0.05600
C1968       C  0.60982201  0.35857306  0.42078472    -0.33000
C1969       C  0.59115340  0.37637092  0.43709791     0.36200
C1970       C  0.59414926  0.40936613  0.44018628    -0.06000
C1971       C  0.61657697  0.42383913  0.42746032    -0.32900
C1972       C  0.63523932  0.40609274  0.41079473     0.36100
H1973       H  0.60577850  0.33364378  0.41844454     0.16500
O1974       O  0.57017603  0.36104091  0.45054611    -0.60400
H1975       H  0.61922721  0.44924738  0.42937910     0.16500
O1976       O  0.65599655  0.42169387  0.39714917    -0.60500
H1977       H  0.66762531  0.42788628  0.41550089     0.43500
H1978       H  0.55806036  0.35629846  0.43223392     0.43400
C1979       C  0.91711654  0.43318078  0.08200576    -0.05600
C1980       C  0.89251102  0.42684695  0.06784837    -0.33000
C1981       C  0.87307940  0.41022769  0.08470255     0.36200
C1982       C  0.87722040  0.40106694  0.11735074    -0.06000
C1983       C  0.90205701  0.40744529  0.13123868    -0.32900
C1984       C  0.92170082  0.42319344  0.11407345     0.36100
H1985       H  0.88864945  0.43352377  0.04297216     0.16500
O1986       O  0.85047611  0.40219116  0.06840560    -0.60400
H1987       H  0.90709017  0.39904081  0.15513897     0.16500
O1988       O  0.94533425  0.42885701  0.12915235    -0.60500
H1989       H  0.95477519  0.40847715  0.12822969     0.43500
H1990       H  0.85358994  0.38077833  0.05949876     0.43400
O1991       O  0.95981914  0.42361209  0.94845376    -0.75400
O1992       O  0.92976777  0.45741053  0.96873258    -0.54400
C1993       C  0.93610114  0.43254987  0.95267260     0.78300
O1994       O  0.55133081  0.44296005  0.57531849    -0.60000
O1995       O  0.58150934  0.46466463  0.54161148    -0.53100
C1996       C  0.57507229  0.44826729  0.56647046     0.70300
O1997       O  0.96260775  0.44140421  0.56970745    -0.74600
O1998       O  0.93168713  0.46525116  0.53820680    -0.55200
C1999       C  0.93871248  0.44720921  0.56172419     0.76300
O2000       O  0.55058021  0.42665028  0.94286000    -0.59700
O2001       O  0.58165179  0.45801061  0.96716281    -0.52900
C2002       C  0.57450580  0.43466200  0.94906899     0.72900
Zr2003     Zr  0.50635424  0.44312817  0.95651423     2.54700
O2004       O  0.50695721  0.38667299  0.96823165    -0.80300
O2005       O  0.50664070  0.43366994  0.89845683    -0.93700
Zr2006     Zr  0.50658781  0.45498844  0.55755250     2.64700
O2007       O  0.00706866  0.39757198  0.56031438    -0.98700
O2008       O  0.50744320  0.47107153  0.61406485    -0.80700
O2009       O  0.98085434  0.44862842  0.50543160    -0.84100
O2010       O  0.53122826  0.44588410  0.51023347    -2.18800
O2011       O  0.54807356  0.04534397  0.92651985    -0.67500
O2012       O  0.57881365  0.02414743  0.96012358    -0.52100
C2013       C  0.57200419  0.04084207  0.93549367     0.71300
O2014       O  0.95975070  0.06772185  0.55122462    -0.60400
O2015       O  0.92922913  0.03451492  0.52883879    -0.52400
C2016       C  0.93583329  0.05880200  0.54598513     0.73100
O2017       O  0.55115046  0.06585655  0.55442669    -0.71800
O2018       O  0.58201790  0.03349250  0.53316954    -0.50500
C2019       C  0.57499926  0.05762820  0.54983431     0.74500
O2020       O  0.96229789  0.04951746  0.92772561    -0.67100
O2021       O  0.93167063  0.02720255  0.96023850    -0.54300
C2022       C  0.93846680  0.04447269  0.93615694     0.72800
Zr2023     Zr  0.00650865  0.03693019  0.94612652     2.77500
O2024       O  0.00568863  0.09455636  0.94576741    -0.97900
O2025       O  0.00688827  0.03495416  0.88733889    -0.78700
Zr2026     Zr  0.00458002  0.05106287  0.53972332     2.70100
O2027       O  0.50750040  0.10532958  0.53415260    -0.79900
O2028       O  0.00485340  0.05819692  0.59815165    -0.99000
Zr2029     Zr  0.95658213  0.49627548  0.49990269     2.21500
Zr2030     Zr  0.55493229  0.99374218  0.99983843     2.11100
O2031       O  0.52973398  0.04051694  0.99311411    -2.47700
O2032       O  0.98140133  0.04359822  0.99326871    -0.79700
O2033       O  0.53168401  0.48997663  0.94999586    -0.71900
O2034       O  0.97952159  0.00441776  0.54794747    -2.32900
O2035       O  0.97956186  0.48872943  0.95087154    -2.29100
O2036       O  0.53233875  0.00204962  0.54888900    -0.73700
H2037       H  0.54239556  0.42781597  0.51351055     0.78300
H2038       H  0.96822486  0.00717322  0.56627849     0.79400
H2039       H  0.54090908  0.05889153  0.99059877     0.81600
H2040       H  0.96803104  0.48597503  0.93237374     0.79200
H2041       H  0.00476760  0.48504139  0.61434994     0.42300
H2042       H  0.51359663  0.07312473  0.60423699     0.41200
H2043       H  0.00544458  0.10986916  0.50612185     0.40900
H2044       H  0.52282203  0.09673509  0.94705145     0.38800
H2045       H  0.50502470  0.04753438  0.87849218     0.42000
H2046       H  0.01152457  0.45494804  0.89239233     0.36800
H2047       H  0.99976766  0.37600931  0.94756800     0.42900
H2048       H  0.49356898  0.38919791  0.55613903     0.39300
H2049       H  0.99987649  0.10013090  0.92359747     0.44200
H2050       H  0.50203275  0.41096759  0.89601858     0.42900
H2051       H  0.98968104  0.39020969  0.55247565     0.43100
H2052       H  0.98702725  0.05218154  0.60504394     0.43400
C2053       C  0.65245178  0.11270456  0.86577767     0.86300
C2054       C  0.64944708  0.11137480  0.82862340    -0.53900
C2055       C  0.66588810  0.13142980  0.81254950     0.09300
C2056       C  0.68431795  0.15031497  0.83498566     0.20200
C2057       C  0.68182753  0.10563812  0.87180448    -0.54600
C2058       C  0.69834175  0.12540301  0.85548786     0.09400
C2059       C  0.64972673  0.14798284  0.87442188    -0.54200
C2060       C  0.66639534  0.16756323  0.85831093     0.09900
H2061       H  0.63519083  0.09634005  0.81623645     0.14400
H2062       H  0.69795984  0.16626308  0.82205341     0.00200
H2063       H  0.68939188  0.08627819  0.88608521     0.14800
H2064       H  0.63570059  0.15672369  0.89169101     0.14500
C2065       C  0.65248991  0.35667869  0.88539149     0.86300
C2066       C  0.64896561  0.32022917  0.88676334    -0.53900
C2067       C  0.66590701  0.30397639  0.86792818     0.09300
C2068       C  0.68523421  0.32516312  0.84986357     0.20200
C2069       C  0.68150085  0.36209069  0.89476866    -0.54600
C2070       C  0.69842433  0.34561228  0.87598733     0.09400
C2071       C  0.65086495  0.36440281  0.84912407    -0.54200
C2072       C  0.66808988  0.34814051  0.83059539     0.09900
H2073       H  0.63522026  0.30751275  0.90161059     0.14400
H2074       H  0.69907840  0.31163098  0.83486897     0.00200
H2075       H  0.68806828  0.37772141  0.91412024     0.14800
H2076       H  0.63727359  0.38146727  0.83901508     0.14500
C2077       C  0.65663646  0.38214591  0.63923388     0.86300
C2078       C  0.65503006  0.38400167  0.67634738    -0.53900
C2079       C  0.67061288  0.36312050  0.69223057     0.09300
C2080       C  0.68747314  0.34311868  0.66997511     0.20200
C2081       C  0.68599308  0.38803123  0.63296765    -0.54600
C2082       C  0.70206656  0.36712264  0.64865424     0.09400
C2083       C  0.65189940  0.34699965  0.63088050    -0.54200
C2084       C  0.66788294  0.32670105  0.64715292     0.09900
H2085       H  0.64328717  0.40080696  0.68943972     0.14400
H2086       H  0.70041012  0.32647901  0.68323001     0.00200
H2087       H  0.69348501  0.40672195  0.61758350     0.14800
H2088       H  0.63678975  0.33887504  0.61406911     0.14500
C2089       C  0.65205972  0.13764688  0.61734492     0.86300
C2090       C  0.64851969  0.17399130  0.61630310    -0.53900
C2091       C  0.66539658  0.19037296  0.63593979     0.09300
C2092       C  0.68451179  0.16926172  0.65485092     0.20200
C2093       C  0.68107654  0.13311213  0.60902325    -0.54600
C2094       C  0.69810370  0.14944362  0.62879473     0.09400
C2095       C  0.65019398  0.12926954  0.65340758    -0.54200
C2096       C  0.66729973  0.14536966  0.67310918     0.09900
H2097       H  0.63444384  0.18654720  0.60159038     0.14400
H2098       H  0.69834776  0.18287381  0.67053367     0.00200
H2099       H  0.68752075  0.11741130  0.59001076     0.14800
H2100       H  0.63597974  0.11236818  0.66252885     0.14500
C2101       C  0.85700367  0.11206561  0.86429121     0.86300
C2102       C  0.86028089  0.14730862  0.87259855    -0.53900
C2103       C  0.84372528  0.16671482  0.85601020     0.09300
C2104       C  0.82552575  0.14912084  0.83219082     0.20200
C2105       C  0.82766370  0.10464888  0.86944506    -0.54600
C2106       C  0.81123153  0.12424685  0.85260136     0.09400
C2107       C  0.85974708  0.11027774  0.82723308    -0.54200
C2108       C  0.84349775  0.12985179  0.81048069     0.09900
H2109       H  0.87439537  0.15605174  0.89038239     0.14400
H2110       H  0.81234649  0.16502817  0.81845982     0.00200
H2111       H  0.82031966  0.08503174  0.88366158     0.14800
H2112       H  0.87346441  0.09500815  0.81519996     0.14500
C2113       C  0.85655803  0.13175483  0.61539597     0.86300
C2114       C  0.85961662  0.12553724  0.65194367    -0.53900
C2115       C  0.84415418  0.14372653  0.67106099     0.09300
C2116       C  0.82670214  0.16642089  0.65170569     0.20200
C2117       C  0.82683595  0.12689691  0.60877075    -0.54600
C2118       C  0.81131439  0.14495408  0.62815979     0.09400
C2119       C  0.86080769  0.16764557  0.61143560    -0.54200
C2120       C  0.84539584  0.18556818  0.63054157     0.09900
H2121       H  0.87305729  0.10816154  0.66176632     0.14400
H2122       H  0.81392865  0.18153722  0.66649023     0.00200
H2123       H  0.81841598  0.11059972  0.59125306     0.14800
H2124       H  0.87510869  0.17800461  0.59529335     0.14500
C2125       C  0.86072431  0.37624755  0.63520080     0.86300
C2126       C  0.86361195  0.34140209  0.62531610    -0.53900
C2127       C  0.84698724  0.32126963  0.64063669     0.09300
C2128       C  0.82873690  0.33745574  0.66446495     0.20200
C2129       C  0.83155605  0.38377422  0.62960863    -0.54600
C2130       C  0.81483815  0.36328543  0.64472978     0.09400
C2131       C  0.86349381  0.37623581  0.67255182    -0.54200
C2132       C  0.84670013  0.35598704  0.68779567     0.09900
H2133       H  0.87793703  0.33328824  0.60809394     0.14400
H2134       H  0.81520577  0.32084630  0.67683094     0.00200
H2135       H  0.82475496  0.40345199  0.61503669     0.14800
H2136       H  0.87660524  0.39154131  0.68624407     0.14500
C2137       C  0.85599455  0.35724050  0.88318998     0.86300
C2138       C  0.85799789  0.36401830  0.84672767    -0.53900
C2139       C  0.84155653  0.34618398  0.82761891     0.09300
C2140       C  0.82406913  0.32344318  0.84691873     0.20200
C2141       C  0.82680203  0.36206826  0.89059613    -0.54600
C2142       C  0.81033647  0.34431170  0.87173278     0.09400
C2143       C  0.85966754  0.32117669  0.88629525    -0.54200
C2144       C  0.84327325  0.30345161  0.86696721     0.09900
H2145       H  0.87179824  0.38102595  0.83686612     0.14400
H2146       H  0.81017203  0.30957299  0.83160580     0.00200
H2147       H  0.81912161  0.37745092  0.90900062     0.14800
H2148       H  0.87391707  0.31074281  0.90265515     0.14500
C2149       C  0.84149836  0.34828268  0.79165782    -0.05600
C2150       C  0.84325997  0.37810324  0.77683546    -0.33000
C2151       C  0.84453299  0.38095880  0.74318919     0.36200
C2152       C  0.84468963  0.35366712  0.72356478    -0.06000
C2153       C  0.84236600  0.32384330  0.73824022    -0.32900
C2154       C  0.84061714  0.32097891  0.77196505     0.36100
H2155       H  0.84337336  0.39940884  0.79142172     0.16500
O2156       O  0.84516815  0.41061444  0.72974089    -0.60400
H2157       H  0.84243099  0.30259094  0.72356969     0.16500
O2158       O  0.83968973  0.29133960  0.78545642    -0.60500
H2159       H  0.82199438  0.28288426  0.78013107     0.43500
H2160       H  0.82660820  0.41700572  0.72779150     0.43400
C2161       C  0.84762001  0.28668298  0.63631160    -0.05600
C2162       C  0.86335495  0.26859436  0.65704380    -0.33000
C2163       C  0.86354398  0.23559270  0.65441921     0.36200
C2164       C  0.84714802  0.22035495  0.63162493    -0.06000
C2165       C  0.83192865  0.23842716  0.61029500    -0.32900
C2166       C  0.83225149  0.27159138  0.61235050     0.36100
H2167       H  0.87548710  0.28013983  0.67528467     0.16500
O2168       O  0.87956991  0.21841293  0.67445758    -0.60400
H2169       H  0.81967760  0.22679421  0.59223552     0.16500
O2170       O  0.81800549  0.28915424  0.59060952    -0.60500
H2171       H  0.79946930  0.28305742  0.59391555     0.43500
H2172       H  0.89523224  0.21377142  0.66146371     0.43400
C2173       C  0.84351988  0.14043841  0.70686901    -0.05600
C2174       C  0.84550036  0.11020569  0.72080026    -0.33000
C2175       C  0.84561382  0.10623475  0.75438302     0.36200
C2176       C  0.84341596  0.13279224  0.77476648    -0.06000
C2177       C  0.84103153  0.16290323  0.76091507    -0.32900
C2178       C  0.84091932  0.16689929  0.72735168     0.36100
H2179       H  0.84669735  0.08940231  0.70559933     0.16500
O2180       O  0.84670844  0.07620521  0.76692072    -0.60400
H2181       H  0.83978828  0.18366841  0.77617949     0.16500
O2182       O  0.83973488  0.19697029  0.71504098    -0.60500
H2183       H  0.82195890  0.20463693  0.71999990     0.43500
H2184       H  0.86480535  0.06897151  0.76309678     0.43400
C2185       C  0.84353708  0.20158086  0.86021544    -0.05600
C2186       C  0.86724621  0.21847266  0.86262114    -0.33000
C2187       C  0.86755250  0.25155864  0.86510896     0.36200
C2188       C  0.84383239  0.26831627  0.86521168    -0.06000
C2189       C  0.82019620  0.25134148  0.86254068    -0.32900
C2190       C  0.81985757  0.21833458  0.86066919     0.36100
H2191       H  0.88566251  0.20607950  0.86160590     0.16500
O2192       O  0.89109932  0.26737481  0.86495787    -0.60400
H2193       H  0.80178209  0.26363201  0.86204434     0.16500
O2194       O  0.79618704  0.20280145  0.85958092    -0.60500
H2195       H  0.79343568  0.19482082  0.88182478     0.43500
H2196       H  0.89936263  0.26292418  0.88626890     0.43400
C2197       C  0.72700455  0.14651417  0.62744508    -0.05600
C2198       C  0.74104389  0.14298448  0.65650787    -0.33000
C2199       C  0.76835561  0.14176956  0.65689737     0.36200
C2200       C  0.78225119  0.14367991  0.62774967    -0.06000
C2201       C  0.76823582  0.14627346  0.59847222    -0.32900
C2202       C  0.74078461  0.14778953  0.59814967     0.36100
H2203       H  0.73078660  0.14114129  0.67919058     0.16500
O2204       O  0.78125997  0.13758280  0.68584952    -0.60400
H2205       H  0.77862857  0.14825793  0.57590645     0.16500
O2206       O  0.72778290  0.15260483  0.56939884    -0.60500
H2207       H  0.72832338  0.13201662  0.55791476     0.43500
H2208       H  0.77885177  0.15753064  0.69807712     0.43400
C2209       C  0.66607967  0.29191820  0.64399777    -0.05600
C2210       C  0.66949760  0.27758223  0.61379463    -0.33000
C2211       C  0.66922542  0.24450931  0.61081850     0.36200
C2212       C  0.66532413  0.22540501  0.63826091    -0.06000
C2213       C  0.66089202  0.23990339  0.66812155    -0.32900
C2214       C  0.66167704  0.27286632  0.67127172     0.36100
H2215       H  0.67300866  0.29205418  0.59265410     0.16500
O2216       O  0.67374078  0.23104728  0.58127480    -0.60400
H2217       H  0.65613935  0.22578736  0.68892748     0.16500
O2218       O  0.65696735  0.28629600  0.70080225    -0.60500
H2219       H  0.67354708  0.28423253  0.71328048     0.43500
H2220       H  0.65667343  0.23154438  0.56965368     0.43400
C2221       C  0.73085446  0.36685867  0.64521598    -0.05600
C2222       C  0.74552562  0.39490410  0.64894586    -0.33000
C2223       C  0.77292814  0.39444796  0.64781097     0.36200
C2224       C  0.78595536  0.36556026  0.64318470    -0.06000
C2225       C  0.77118608  0.33777188  0.63870831    -0.32900
C2226       C  0.74389315  0.33825922  0.63943748     0.36100
H2227       H  0.73576335  0.41704672  0.65366797     0.16500
O2228       O  0.78677135  0.42192310  0.65332536    -0.60400
H2229       H  0.78084324  0.31546218  0.63471767     0.16500
O2230       O  0.73006926  0.31089508  0.63314340    -0.60500
H2231       H  0.73297116  0.29713692  0.65224283     0.43500
H2232       H  0.78573358  0.43383094  0.63270687     0.43400
C2233       C  0.66921261  0.35161490  0.79508594    -0.05600
C2234       C  0.64578016  0.35221558  0.77716022    -0.33000
C2235       C  0.64602321  0.35576136  0.74364431     0.36200
C2236       C  0.66998640  0.35904457  0.72757066    -0.06000
C2237       C  0.69344069  0.35785562  0.74527238    -0.32900
C2238       C  0.69321750  0.35400615  0.77884370     0.36100
H2239       H  0.62718841  0.34938206  0.78912765     0.16500
O2240       O  0.62285274  0.35426251  0.72658900    -0.60400
H2241       H  0.71197742  0.36035216  0.73309860     0.16500
O2242       O  0.71649158  0.35414948  0.79561297    -0.60500
H2243       H  0.72486196  0.33371999  0.79041553     0.43500
H2244       H  0.61425290  0.37484089  0.73042923     0.43400
C2245       C  0.72705267  0.34783120  0.87882499    -0.05600
C2246       C  0.74078411  0.32341108  0.89407684    -0.33000
C2247       C  0.76812546  0.32213278  0.89231309     0.36200
C2248       C  0.78173663  0.34550032  0.87492398    -0.06000
C2249       C  0.76803573  0.37049212  0.86058307    -0.32900
C2250       C  0.74080891  0.37187172  0.86263198     0.36100
H2251       H  0.73024299  0.30503384  0.90686511     0.16500
O2252       O  0.78154923  0.29875517  0.90834962    -0.60400
H2253       H  0.77847987  0.38867183  0.84737435     0.16500
O2254       O  0.72771585  0.39591826  0.84739345    -0.60500
H2255       H  0.72413599  0.41158656  0.86458417     0.43500
H2256       H  0.77291917  0.27844198  0.90227248     0.43400
C2257       C  0.66619307  0.13485414  0.77684079    -0.05600
C2258       C  0.66403717  0.10802875  0.75690816    -0.33000
C2259       C  0.66513481  0.11086395  0.72319797     0.36200
C2260       C  0.66829255  0.14094799  0.70881774    -0.06000
C2261       C  0.67150640  0.16742720  0.72892652    -0.32900
C2262       C  0.66965513  0.16479843  0.76243148     0.36100
H2263       H  0.66196006  0.08471034  0.76749232     0.16500
O2264       O  0.66377628  0.08397499  0.70465403    -0.60400
H2265       H  0.67478773  0.19054702  0.71881185     0.16500
O2266       O  0.67044401  0.19192052  0.78067279    -0.60500
H2267       H  0.65189316  0.19736830  0.78429909     0.43500
H2268       H  0.68217368  0.07736566  0.70196995     0.43400
C2269       C  0.72718447  0.12240990  0.85532201    -0.05600
C2270       C  0.74014025  0.12511704  0.82577953    -0.33000
C2271       C  0.76737847  0.12471462  0.82452734     0.36200
C2272       C  0.78230477  0.12177193  0.85322021    -0.06000
C2273       C  0.76938076  0.11824061  0.88276813    -0.32900
C2274       C  0.74199613  0.11872480  0.88398781     0.36100
H2275       H  0.72907279  0.12755624  0.80342345     0.16500
O2276       O  0.77914874  0.12722092  0.79502961    -0.60400
H2277       H  0.78055373  0.11631346  0.90508949     0.16500
O2278       O  0.73000220  0.11684231  0.91337538    -0.60500
H2279       H  0.72888388  0.13901655  0.92107937     0.43500
H2280       H  0.78142203  0.10513421  0.78753664     0.43400
C2281       C  0.66632531  0.20241064  0.86157391    -0.05600
C2282       C  0.64274427  0.21881026  0.85810957    -0.33000
C2283       C  0.64232692  0.25189719  0.85989657     0.36200
C2284       C  0.66574854  0.26900774  0.86539548    -0.06000
C2285       C  0.68934702  0.25259220  0.86842871    -0.32900
C2286       C  0.68977360  0.21951832  0.86652863     0.36100
H2287       H  0.62467963  0.20595251  0.85328743     0.16500
O2288       O  0.61922788  0.26739651  0.85446853    -0.60400
H2289       H  0.70749211  0.26539066  0.87272041     0.16500
O2290       O  0.71299573  0.20402762  0.87104224    -0.60500
H2291       H  0.72297613  0.20766388  0.85097167     0.43500
H2292       H  0.60886205  0.26404284  0.87428124     0.43400
C2293       C  0.59298113  0.05699837  0.91668145    -0.05600
C2294       C  0.58607677  0.07954132  0.89319803    -0.33000
C2295       C  0.60510385  0.09721574  0.87697499     0.36200
C2296       C  0.63203082  0.09223470  0.88315260    -0.06000
C2297       C  0.63891915  0.06920903  0.90633018    -0.32900
C2298       C  0.61983731  0.05174872  0.92285161     0.36100
H2299       H  0.56570739  0.08433876  0.88787322     0.16500
O2300       O  0.59708383  0.11961922  0.85507472    -0.60400
H2301       H  0.65900777  0.06470551  0.91272977     0.16500
O2302       O  0.62784603  0.03025758  0.94568779    -0.60500
H2303       H  0.63348997  0.01146304  0.93331664     0.43500
H2304       H  0.59177143  0.13806243  0.86821112     0.43400
C2305       C  0.63707158  0.40311475  0.62113079    -0.05600
C2306       C  0.61299450  0.41048130  0.63556150    -0.33000
C2307       C  0.59308875  0.42573927  0.61845950     0.36200
C2308       C  0.59650353  0.43387950  0.58582887    -0.06000
C2309       C  0.62029975  0.42653629  0.57108178    -0.32900
C2310       C  0.64009089  0.41059056  0.58805651     0.36100
H2311       H  0.60853614  0.40308171  0.65984771     0.16500
O2312       O  0.57030926  0.43253317  0.63407361    -0.60400
H2313       H  0.62315641  0.43180598  0.54574285     0.16500
O2314       O  0.66180824  0.40137063  0.57156035    -0.60500
H2315       H  0.65732650  0.38018252  0.56264115     0.43500
H2316       H  0.56006421  0.41247640  0.63389043     0.43400
C2317       C  0.91483832  0.07755953  0.56184538    -0.05600
C2318       C  0.92209400  0.10081199  0.58459715    -0.33000
C2319       C  0.90342808  0.11779350  0.60164008     0.36200
C2320       C  0.87637800  0.11266295  0.59589176    -0.06000
C2321       C  0.86899484  0.08974626  0.57260593    -0.32900
C2322       C  0.88783845  0.07221274  0.55590244     0.36100
H2323       H  0.94252932  0.10564076  0.58993808     0.16500
O2324       O  0.91195025  0.13980632  0.62391082    -0.60400
H2325       H  0.84870358  0.08475662  0.56718335     0.16500
O2326       O  0.87949845  0.05027186  0.53350075    -0.60500
H2327       H  0.87442387  0.03134158  0.54621437     0.43500
H2328       H  0.91799201  0.12741929  0.64289702     0.43400
C2329       C  0.59557148  0.07794036  0.56469551    -0.05600
C2330       C  0.61754033  0.06459376  0.57978847    -0.33000
C2331       C  0.63597971  0.08376658  0.59617052     0.36200
C2332       C  0.63310209  0.11713452  0.59701735    -0.06000
C2333       C  0.61137370  0.13018420  0.58066017    -0.32900
C2334       C  0.59281381  0.11099920  0.56493060     0.36100
H2335       H  0.61997028  0.03913795  0.57986308     0.16500
O2336       O  0.65671128  0.06959377  0.61156015    -0.60400
H2337       H  0.60772283  0.15519385  0.58029359     0.16500
O2338       O  0.57224982  0.12498745  0.54901254    -0.60500
H2339       H  0.55958012  0.13033825  0.56606939     0.43500
H2340       H  0.64970205  0.06152823  0.63224659     0.43400
C2341       C  0.87626746  0.37639208  0.90301066    -0.05600
C2342       C  0.86926136  0.39951924  0.92593805    -0.33000
C2343       C  0.88825158  0.41769540  0.94254669     0.36200
C2344       C  0.91507415  0.41296068  0.93687402    -0.06000
C2345       C  0.92208205  0.38943975  0.91461119    -0.32900
C2346       C  0.90319184  0.37165259  0.89769772     0.36100
H2347       H  0.84915654  0.40447921  0.93114931     0.16500
O2348       O  0.88022309  0.43966610  0.96464611    -0.60400
H2349       H  0.94245354  0.38503962  0.90957033     0.16500
O2350       O  0.91134712  0.34935415  0.87598697    -0.60500
H2351       H  0.91712386  0.36146110  0.85679093     0.43500
H2352       H  0.87454399  0.45816096  0.95167068     0.43400
C2353       C  0.91742965  0.06015795  0.91718716    -0.05600
C2354       C  0.89239004  0.06327913  0.93039308    -0.33000
C2355       C  0.87262181  0.07978741  0.91400388     0.36200
C2356       C  0.87708386  0.09214806  0.88274392    -0.06000
C2357       C  0.90255641  0.08991759  0.87035412    -0.32900
C2358       C  0.92233669  0.07388654  0.88682651     0.36100
H2359       H  0.88832027  0.05401879  0.95422870     0.16500
O2360       O  0.84961116  0.08489286  0.92967795    -0.60400
H2361       H  0.90771733  0.10142426  0.84796035     0.12900
O2362       O  0.94639649  0.07180340  0.87273958    -0.60500
H2363       H  0.95538876  0.09214521  0.87782345     0.43500
H2364       H  0.85227986  0.10511108  0.94151491     0.43400
C2365       C  0.63326796  0.37681517  0.90465399    -0.05600
C2366       C  0.61157192  0.36318195  0.92035470    -0.33000
C2367       C  0.59261551  0.38185892  0.93479368     0.36200
C2368       C  0.59508812  0.41497433  0.93474668    -0.06000
C2369       C  0.61693107  0.42897447  0.92020277    -0.32900
C2370       C  0.63571391  0.41028960  0.90492406     0.36100
H2371       H  0.60811120  0.33807045  0.92097295     0.16500
O2372       O  0.57181458  0.36733469  0.94948980    -0.60400
H2373       H  0.61896441  0.45452344  0.91964983     0.16500
O2374       O  0.65570105  0.42505297  0.88883736    -0.60500
H2375       H  0.66818057  0.43225188  0.90590460     0.43500
H2376       H  0.55923824  0.36226193  0.93174327     0.43400
C2377       C  0.91807681  0.43158955  0.58100898    -0.05600
C2378       C  0.89443176  0.42203580  0.56629205    -0.33000
C2379       C  0.87581518  0.40444575  0.58347921     0.36200
C2380       C  0.87986356  0.39752512  0.61670893    -0.06000
C2381       C  0.90366740  0.40747496  0.63116316    -0.32900
C2382       C  0.92248720  0.42420417  0.61377340     0.36100
H2383       H  0.89086445  0.42689416  0.54090864     0.16500
O2384       O  0.85402148  0.39349445  0.56720522    -0.60400
H2385       H  0.90879721  0.40122650  0.65566676     0.16500
O2386       O  0.94517208  0.43345123  0.62929362    -0.60500
H2387       H  0.95645817  0.41448134  0.62930556     0.43500
H2388       H  0.85915990  0.37286957  0.55789207     0.43400
O2389       O  0.96158074  0.92375650  0.44616077    -0.75400
O2390       O  0.93102374  0.95593947  0.46808098    -0.54400
C2391       C  0.93770614  0.93205707  0.45078378     0.78300
O2392       O  0.54969678  0.94013721  0.07106745    -0.60000
O2393       O  0.58009106  0.96265441  0.03821104    -0.53100
C2394       C  0.57346752  0.94521977  0.06228779     0.70300
O2395       O  0.96161041  0.94194349  0.06954190    -0.74600
O2396       O  0.93098111  0.96684283  0.03853872    -0.55200
C2397       C  0.93774550  0.94844048  0.06188186     0.76300
O2398       O  0.55113751  0.92407007  0.44776770    -0.59700
O2399       O  0.58219664  0.95654434  0.47049656    -0.52900
C2400       C  0.57510211  0.93253550  0.45319649     0.72900
Zr2401     Zr  0.50666533  0.94088308  0.46046703     2.54700
O2402       O  0.50751974  0.88422809  0.47108482    -0.80300
O2403       O  0.50613644  0.93282581  0.40216945    -0.93700
Zr2404     Zr  0.50513291  0.95335665  0.05400221     2.64700
O2405       O  0.00717095  0.89797320  0.05756712    -0.98700
O2406       O  0.50508840  0.96693218  0.11118070    -0.80700
O2407       O  0.98009813  0.94887447  0.00544484    -0.84100
O2408       O  0.52979761  0.94634332  0.00651837    -2.18800
O2409       O  0.54923034  0.54458710  0.42763520    -0.67500
O2410       O  0.58012320  0.52293941  0.46066722    -0.52100
C2411       C  0.57317785  0.53995066  0.43626078     0.71300
O2412       O  0.96377895  0.56953080  0.05118144    -0.60400
O2413       O  0.93249430  0.53716763  0.02910926    -0.52400
C2414       C  0.93973016  0.56131687  0.04610811     0.73100
O2415       O  0.55164271  0.56472717  0.05450820    -0.71800
O2416       O  0.58196813  0.53518622  0.02856687    -0.50500
C2417       C  0.57535438  0.55795247  0.04733413     0.74500
O2418       O  0.96343696  0.55354234  0.43201823    -0.67100
O2419       O  0.93233738  0.52836318  0.46172649    -0.54300
C2420       C  0.93952549  0.54756315  0.43937586     0.72800
Zr2421     Zr  0.00733941  0.53693116  0.44704265     2.77500
O2422       O  0.01131353  0.59398943  0.44027669    -0.97900
O2423       O  0.00411204  0.52786301  0.38904224    -0.78700
Zr2424     Zr  0.00728378  0.55025346  0.03794774     2.70100
O2425       O  0.50767702  0.60442514  0.03652869    -0.79900
O2426       O  0.00883069  0.56146121  0.09573817    -0.99000
Zr2427     Zr  0.95604191  0.99653421  0.99934305     2.21500
Zr2428     Zr  0.55646048  0.49301441  0.50128062     2.11100
O2429       O  0.53132057  0.53961592  0.49293868    -2.47700
O2430       O  0.98217330  0.54335566  0.49435847    -0.79700
O2431       O  0.53281211  0.98685697  0.45265664    -0.71900
O2432       O  0.98115008  0.50443547  0.04680288    -2.32900
O2433       O  0.97972417  0.98821467  0.45185311    -2.29100
O2434       O  0.53275546  0.50066740  0.04688894    -0.73700
H2435       H  0.54099272  0.92821082  0.00902751     0.78300
H2436       H  0.97021478  0.50753932  0.06539370     0.79400
H2437       H  0.54244602  0.55792701  0.48969862     0.81600
H2438       H  0.96855226  0.98511482  0.43307055     0.79200
H2439       H  0.01185551  0.98293444  0.11548186     0.42300
H2440       H  0.51781755  0.53085186  0.10685845     0.41200
H2441       H  0.01627689  0.61688333  0.04121462     0.40900
H2442       H  0.51465360  0.59668881  0.44953520     0.38800
H2443       H  0.50561082  0.53439613  0.37719657     0.42000
H2444       H  0.99049095  0.94259774  0.39441143     0.36800
H2445       H  0.00167228  0.87576171  0.45223071     0.42900
H2446       H  0.51927877  0.88840574  0.04867635     0.39300
H2447       H  0.99720613  0.60284908  0.45358942     0.44200
H2448       H  0.52281950  0.94217722  0.39469876     0.42900
H2449       H  0.00620992  0.89388206  0.08108213     0.43100
H2450       H  0.99076376  0.55806874  0.10338133     0.43400
C2451       C  0.65304297  0.61043106  0.36358009     0.86300
C2452       C  0.65018517  0.60827625  0.32649313    -0.53900
C2453       C  0.66641596  0.62825637  0.31001690     0.09300
C2454       C  0.68461513  0.64800369  0.33216584     0.20200
C2455       C  0.68258527  0.60408573  0.36995730    -0.54600
C2456       C  0.69905972  0.62378644  0.35334884     0.09400
C2457       C  0.64984204  0.64580267  0.37142784    -0.54200
C2458       C  0.66631343  0.66551193  0.35512526     0.09900
H2459       H  0.63605239  0.59283653  0.31441060     0.14400
H2460       H  0.69803975  0.66383823  0.31879142     0.00200
H2461       H  0.69027671  0.58525072  0.38485819     0.14800
H2462       H  0.63569984  0.65447884  0.38858804     0.14500
C2463       C  0.65173601  0.85552832  0.38424667     0.86300
C2464       C  0.64811977  0.81903459  0.38529963    -0.53900
C2465       C  0.66473514  0.80268004  0.36604753     0.09300
C2466       C  0.68403527  0.82405128  0.34790697     0.20200
C2467       C  0.68086941  0.86058250  0.39322047    -0.54600
C2468       C  0.69763129  0.84425099  0.37407836     0.09400
C2469       C  0.64988087  0.86366211  0.34795680    -0.54200
C2470       C  0.66683815  0.84733752  0.32889128     0.09900
H2471       H  0.63477576  0.80639804  0.40074030     0.14400
H2472       H  0.69769860  0.81058788  0.33263919     0.00200
H2473       H  0.68767590  0.87585086  0.41274803     0.14800
H2474       H  0.63628630  0.88093588  0.33826600     0.14500
C2475       C  0.65374853  0.87614690  0.13522913     0.86300
C2476       C  0.65189011  0.87837016  0.17242100    -0.53900
C2477       C  0.66783795  0.85826961  0.18895606     0.09300
C2478       C  0.68530065  0.83862880  0.16697657     0.20200
C2479       C  0.68301367  0.88292801  0.12919884    -0.54600
C2480       C  0.69948526  0.86290702  0.14553341     0.09400
C2481       C  0.64993891  0.84078108  0.12729605    -0.54200
C2482       C  0.66638115  0.82136007  0.14396044     0.09900
H2483       H  0.64013039  0.89538037  0.18513751     0.14400
H2484       H  0.69847512  0.82248364  0.18051630     0.00200
H2485       H  0.69010339  0.90154225  0.11341495     0.14800
H2486       H  0.63531997  0.83188175  0.11022986     0.14500
C2487       C  0.65585244  0.63339355  0.11368638     0.86300
C2488       C  0.65271529  0.66966616  0.11270655    -0.53900
C2489       C  0.66869848  0.68558124  0.13370656     0.09300
C2490       C  0.68699576  0.66421158  0.15338696     0.20200
C2491       C  0.68517634  0.62893993  0.10675066    -0.54600
C2492       C  0.70152304  0.64481258  0.12778650     0.09400
C2493       C  0.65266153  0.62431924  0.14938855    -0.54200
C2494       C  0.66892012  0.64025850  0.17026472     0.09900
H2495       H  0.63969114  0.68217294  0.09635613     0.14400
H2496       H  0.70021113  0.67762627  0.17003047     0.00200
H2497       H  0.69243139  0.61464414  0.08712332     0.14800
H2498       H  0.63801548  0.60738901  0.15738405     0.14500
C2499       C  0.85915001  0.61413919  0.36466994     0.86300
C2500       C  0.86168924  0.64952497  0.37243929    -0.53900
C2501       C  0.84495953  0.66827424  0.35533265     0.09300
C2502       C  0.82712265  0.64976485  0.33166639     0.20200
C2503       C  0.82984513  0.60600053  0.36973534    -0.54600
C2504       C  0.81299756  0.62478452  0.35236569     0.09400
C2505       C  0.86220388  0.61195922  0.32765883    -0.54200
C2506       C  0.84573544  0.63082792  0.31042935     0.09900
H2507       H  0.87559790  0.65886481  0.39015678     0.14400
H2508       H  0.81376237  0.66499523  0.31743708     0.00200
H2509       H  0.82301136  0.58670425  0.38480830     0.14800
H2510       H  0.87619697  0.59700023  0.31581656     0.14500
C2511       C  0.86048003  0.63407656  0.11519920     0.86300
C2512       C  0.86409276  0.62807565  0.15170952    -0.53900
C2513       C  0.84811339  0.64541875  0.17100565     0.09300
C2514       C  0.82965573  0.66707568  0.15181739     0.20200
C2515       C  0.83086675  0.62769109  0.10895727    -0.54600
C2516       C  0.81488038  0.64490774  0.12847309     0.09400
C2517       C  0.86343571  0.67010215  0.11115387    -0.54200
C2518       C  0.84743747  0.68712602  0.13040411     0.09900
H2519       H  0.87824822  0.61145533  0.16136023     0.14400
H2520       H  0.81640944  0.68151854  0.16662376     0.00200
H2521       H  0.82276247  0.61115065  0.09147964     0.14800
H2522       H  0.87722906  0.68119998  0.09483890     0.14500
C2523       C  0.85799353  0.87802582  0.13361798     0.86300
C2524       C  0.86120872  0.84319801  0.12362570    -0.53900
C2525       C  0.84504237  0.82271780  0.13930586     0.09300
C2526       C  0.82703265  0.83846579  0.16357357     0.20200
C2527       C  0.82857166  0.88493455  0.12876493    -0.54600
C2528       C  0.81243898  0.86395550  0.14422421     0.09400
C2529       C  0.86122303  0.87808871  0.17085131    -0.54200
C2530       C  0.84511911  0.85729865  0.18636409     0.09900
H2531       H  0.87547946  0.83535992  0.10620613     0.14400
H2532       H  0.81402273  0.82155876  0.17638232     0.00200
H2533       H  0.82103680  0.90464381  0.11487254     0.14800
H2534       H  0.87425511  0.89391867  0.18414138     0.14500
C2535       C  0.85612101  0.85944110  0.38075048     0.86300
C2536       C  0.85739919  0.86636285  0.34432350    -0.53900
C2537       C  0.84094400  0.84821003  0.32570654     0.09300
C2538       C  0.82397101  0.82517580  0.34529585     0.20200
C2539       C  0.82691891  0.86398458  0.38883560    -0.54600
C2540       C  0.81024164  0.84587023  0.37041746     0.09400
C2541       C  0.86016205  0.82346955  0.38378204    -0.54200
C2542       C  0.84370982  0.80541457  0.36487835     0.09900
H2543       H  0.87076204  0.88363889  0.33403502     0.14400
H2544       H  0.81014466  0.81122484  0.32996572     0.00200
H2545       H  0.81946957  0.87963827  0.40716372     0.14800
H2546       H  0.87470538  0.81341957  0.39997905     0.14500
C2547       C  0.84070407  0.84998921  0.28988439    -0.05600
C2548       C  0.83985669  0.87970508  0.27478424    -0.33000
C2549       C  0.84101793  0.88232065  0.24115562     0.36200
C2550       C  0.84361256  0.85499004  0.22200092    -0.06000
C2551       C  0.84401131  0.82520075  0.23695341    -0.32900
C2552       C  0.84252292  0.82253594  0.27067288     0.36100
H2553       H  0.83809428  0.90099851  0.28916788     0.16500
O2554       O  0.83918771  0.91169760  0.22724452    -0.60400
H2555       H  0.84594796  0.80397637  0.22249967     0.16500
O2556       O  0.84445097  0.79321278  0.28467692    -0.60500
H2557       H  0.82704547  0.78309226  0.28140581     0.43500
H2558       H  0.82088630  0.91312858  0.21919231     0.43400
C2559       C  0.84624224  0.78812001  0.13553394    -0.05600
C2560       C  0.86290172  0.77095437  0.15599038    -0.33000
C2561       C  0.86383998  0.73797429  0.15394447     0.36200
C2562       C  0.84774756  0.72186626  0.13148757    -0.06000
C2563       C  0.83116398  0.73893218  0.11088222    -0.32900
C2564       C  0.83021585  0.77206285  0.11289047     0.36100
H2565       H  0.87508661  0.78320625  0.17368786     0.16500
O2566       O  0.88013307  0.72164583  0.17441913    -0.60400
H2567       H  0.81874901  0.72652174  0.09353895     0.16500
O2568       O  0.81405027  0.78867200  0.09242561    -0.60500
H2569       H  0.79623051  0.77979649  0.09549113     0.43500
H2570       H  0.89550434  0.71611651  0.16127660     0.43400
C2571       C  0.84774715  0.64207212  0.20682932    -0.05600
C2572       C  0.85107044  0.61200586  0.22072294    -0.33000
C2573       C  0.85047611  0.60779742  0.25426241     0.36200
C2574       C  0.84655314  0.63400134  0.27470349    -0.06000
C2575       C  0.84335781  0.66402345  0.26088810    -0.32900
C2576       C  0.84357685  0.66818309  0.22735243     0.36100
H2577       H  0.85350660  0.59140133  0.20550868     0.16500
O2578       O  0.85226519  0.57774651  0.26660718    -0.60400
H2579       H  0.84092955  0.68460404  0.27615094     0.16500
O2580       O  0.84080648  0.69813522  0.21514437    -0.60500
H2581       H  0.82250251  0.70414474  0.21963455     0.43500
H2582       H  0.87064552  0.57135080  0.26325279     0.43400
C2583       C  0.84464362  0.70328728  0.35864933    -0.05600
C2584       C  0.86822402  0.72032055  0.36237328    -0.33000
C2585       C  0.86838542  0.75343745  0.36478914     0.36200
C2586       C  0.84462988  0.77018467  0.36316506    -0.06000
C2587       C  0.82121804  0.75301437  0.35890266    -0.32900
C2588       C  0.82098888  0.72001722  0.35739465     0.36100
H2589       H  0.88671003  0.70801643  0.36266368     0.16500
O2590       O  0.89194405  0.76919635  0.36639977    -0.60400
H2591       H  0.80278200  0.76507125  0.35694148     0.16500
O2592       O  0.79736751  0.70448544  0.35518332    -0.60500
H2593       H  0.79371954  0.69696078  0.37738425     0.43500
H2594       H  0.89914463  0.76471893  0.38828143     0.43400
C2595       C  0.73054260  0.64315227  0.12692446    -0.05600
C2596       C  0.74447357  0.64023743  0.15616647    -0.33000
C2597       C  0.77183432  0.64017398  0.15685305     0.36200
C2598       C  0.78586675  0.64261876  0.12785601    -0.06000
C2599       C  0.77200111  0.64482314  0.09845787    -0.32900
C2600       C  0.74453639  0.64522248  0.09781652     0.36100
H2601       H  0.73410058  0.63795765  0.17872643     0.16500
O2602       O  0.78468848  0.63658095  0.18592664    -0.60400
H2603       H  0.78249701  0.64735838  0.07601951     0.16500
O2604       O  0.73167477  0.64977678  0.06892479    -0.60500
H2605       H  0.73311101  0.62943634  0.05713225     0.43500
H2606       H  0.78189444  0.65658475  0.19791528     0.43400
C2607       C  0.66597707  0.78664702  0.14072906    -0.05600
C2608       C  0.67668466  0.77240443  0.11337499    -0.33000
C2609       C  0.67798669  0.73938456  0.11107283     0.36200
C2610       C  0.66848519  0.72037443  0.13630702    -0.06000
C2611       C  0.65732536  0.73465107  0.16333730    -0.32900
C2612       C  0.65621905  0.76764579  0.16576552     0.36100
H2613       H  0.68442971  0.78693120  0.09409836     0.16500
O2614       O  0.68912744  0.72587010  0.08450285    -0.60400
H2615       H  0.64898891  0.72023372  0.18225774     0.16500
O2616       O  0.64478845  0.78114941  0.19214747    -0.60500
H2617       H  0.65904448  0.78343632  0.20846946     0.43500
H2618       H  0.67451183  0.72252474  0.06886099     0.43400
C2619       C  0.72834019  0.86388916  0.14292426    -0.05600
C2620       C  0.74211207  0.89252685  0.14723808    -0.33000
C2621       C  0.76956473  0.89321898  0.14725283     0.36200
C2622       C  0.78350870  0.86497610  0.14277444    -0.06000
C2623       C  0.76965220  0.83655590  0.13815582    -0.32900
C2624       C  0.74236663  0.83582780  0.13804397     0.36100
H2625       H  0.73159048  0.91420103  0.15168627     0.16500
O2626       O  0.78252548  0.92106776  0.15396908    -0.60400
H2627       H  0.78001605  0.81465481  0.13473711     0.16500
O2628       O  0.72956236  0.80773220  0.13195236    -0.60500
H2629       H  0.73273631  0.79438153  0.15129363     0.43500
H2630       H  0.78114055  0.93378291  0.13389607     0.43400
C2631       C  0.66758647  0.85059816  0.29304545    -0.05600
C2632       C  0.64401555  0.85210128  0.27541251    -0.33000
C2633       C  0.64388246  0.85444449  0.24166872     0.36200
C2634       C  0.66763909  0.85543754  0.22476992    -0.06000
C2635       C  0.69125343  0.85360050  0.24225277    -0.32900
C2636       C  0.69139124  0.85123612  0.27612411     0.36100
H2637       H  0.62550868  0.85078120  0.28779503     0.16500
O2638       O  0.62038235  0.85400442  0.22528515    -0.60400
H2639       H  0.70969761  0.85463348  0.22969222     0.16500
O2640       O  0.71487952  0.85134752  0.29251316    -0.60500
H2641       H  0.72302798  0.83073530  0.28749954     0.43500
H2642       H  0.61266550  0.87512288  0.22902090     0.43400
C2643       C  0.72641533  0.84656096  0.37685058    -0.05600
C2644       C  0.74054082  0.82099262  0.38929347    -0.33000
C2645       C  0.76800558  0.82084823  0.38824234     0.36200
C2646       C  0.78146346  0.84643817  0.37409405    -0.06000
C2647       C  0.76732908  0.87266279  0.36297021    -0.32900
C2648       C  0.73995921  0.87295701  0.36457594     0.36100
H2649       H  0.73023198  0.80107604  0.39978642     0.16500
O2650       O  0.78172711  0.79662436  0.40247350    -0.60400
H2651       H  0.77753688  0.89267683  0.35248181     0.16500
O2652       O  0.72654495  0.89851690  0.35280297    -0.60500
H2653       H  0.72458785  0.91283931  0.37159850     0.43500
H2654       H  0.77264866  0.77662807  0.39626832     0.43400
C2655       C  0.66630832  0.63116896  0.27416470    -0.05600
C2656       C  0.66394490  0.60408399  0.25455904    -0.33000
C2657       C  0.66480092  0.60647971  0.22076567     0.36200
C2658       C  0.66811665  0.63636070  0.20599101    -0.06000
C2659       C  0.67042181  0.66328256  0.22567087    -0.32900
C2660       C  0.66900953  0.66100564  0.25926274     0.36100
H2661       H  0.66196221  0.58089491  0.26546038     0.16500
O2662       O  0.66297214  0.57938715  0.20256784    -0.60400
H2663       H  0.67274324  0.68646745  0.21503008     0.16500
O2664       O  0.66959825  0.68835027  0.27714246    -0.60500
H2665       H  0.65107502  0.69273619  0.28216504     0.43500
H2666       H  0.68127863  0.57280042  0.19910518     0.43400
C2667       C  0.72822992  0.62144411  0.35380828    -0.05600
C2668       C  0.74166592  0.62386427  0.32453957    -0.33000
C2669       C  0.76903931  0.62376416  0.32378359     0.36200
C2670       C  0.78383154  0.62160357  0.35271083    -0.06000
C2671       C  0.77044952  0.61829985  0.38203912    -0.32900
C2672       C  0.74291248  0.61839893  0.38276213     0.36100
H2673       H  0.73085576  0.62576305  0.30194255     0.16500
O2674       O  0.78110018  0.62572086  0.29443805    -0.60400
H2675       H  0.78136838  0.61687192  0.40458924     0.16500
O2676       O  0.73065485  0.61681526  0.41199783    -0.60500
H2677       H  0.72729582  0.63911910  0.41803891     0.43500
H2678       H  0.78362688  0.60349004  0.28754248     0.43400
C2679       C  0.66593446  0.70056751  0.35857253    -0.05600
C2680       C  0.64197945  0.71657155  0.35869538    -0.33000
C2681       C  0.64117990  0.74968514  0.36126680     0.36200
C2682       C  0.66465854  0.76744944  0.36358475    -0.06000
C2683       C  0.68853445  0.75135634  0.36345251    -0.32900
C2684       C  0.68931812  0.71827228  0.36116137     0.36100
H2685       H  0.62378382  0.70340563  0.35618590     0.16500
O2686       O  0.61744501  0.76452737  0.35970461    -0.60400
H2687       H  0.70676702  0.76439068  0.36567619     0.16500
O2688       O  0.71298508  0.70334857  0.36335036    -0.60500
H2689       H  0.72206813  0.70835702  0.34292427     0.43500
H2690       H  0.60877826  0.75952910  0.38041804     0.43400
C2691       C  0.59393349  0.55605062  0.41695357    -0.05600
C2692       C  0.58676803  0.57762498  0.39259907    -0.33000
C2693       C  0.60562515  0.59461754  0.37527153     0.36200
C2694       C  0.63266078  0.59008700  0.38141791    -0.06000
C2695       C  0.63973490  0.56787888  0.40533852    -0.32900
C2696       C  0.62083748  0.55112074  0.42289177     0.36100
H2697       H  0.56633899  0.58203978  0.38724088     0.16500
O2698       O  0.59733024  0.61580634  0.35227067    -0.60400
H2699       H  0.65988253  0.56355884  0.41155663     0.16500
O2700       O  0.62912819  0.53054449  0.44641920    -0.60500
H2701       H  0.63124038  0.50998354  0.43522788     0.43500
H2702       H  0.59146627  0.63461186  0.36446529     0.43400
C2703       C  0.63403458  0.89650118  0.11637260    -0.05600
C2704       C  0.61059516  0.90596012  0.13105373    -0.33000
C2705       C  0.59124983  0.92223076  0.11397184     0.36200
C2706       C  0.59451096  0.92935552  0.08108265    -0.06000
C2707       C  0.61746301  0.91950694  0.06584854    -0.32900
C2708       C  0.63673350  0.90255775  0.08290379     0.36100
H2709       H  0.60612979  0.89970210  0.15563783     0.16500
O2710       O  0.56922739  0.93135456  0.12997333    -0.60400
H2711       H  0.62003610  0.92385302  0.04027537     0.16500
O2712       O  0.65778248  0.89139870  0.06633132    -0.60500
H2713       H  0.65225699  0.87025243  0.05820056     0.43500
H2714       H  0.55812112  0.91202948  0.13125416     0.43400
C2715       C  0.91910982  0.58067934  0.06174622    -0.05600
C2716       C  0.92641103  0.60445247  0.08395657    -0.33000
C2717       C  0.90764247  0.62160960  0.10078035     0.36200
C2718       C  0.88060398  0.61583231  0.09541939    -0.06000
C2719       C  0.87334916  0.59270557  0.07236896    -0.32900
C2720       C  0.89216534  0.57519708  0.05588809     0.36100
H2721       H  0.94686446  0.60948080  0.08901254     0.16500
O2722       O  0.91599318  0.64423676  0.12250478    -0.60400
H2723       H  0.85314366  0.58734367  0.06696308     0.16500
O2724       O  0.88379022  0.55290003  0.03388309    -0.60500
H2725       H  0.87967293  0.53379234  0.04684741     0.43500
H2726       H  0.92236675  0.63237197  0.14167809     0.43400
C2727       C  0.59639261  0.57789286  0.06183694    -0.05600
C2728       C  0.62123942  0.56516346  0.06767405    -0.33000
C2729       C  0.64087910  0.58291341  0.08340388     0.36200
C2730       C  0.63639380  0.61475945  0.09244353    -0.06000
C2731       C  0.61126246  0.62715273  0.08653708    -0.32900
C2732       C  0.59164621  0.60934646  0.07114761     0.36100
H2733       H  0.62518346  0.54082517  0.06122393     0.16500
O2734       O  0.66402426  0.56830312  0.09068020    -0.60400
H2735       H  0.60599441  0.65040735  0.09494292     0.16500
O2736       O  0.56796176  0.62323749  0.06488287    -0.60500
H2737       H  0.55885821  0.62362851  0.08589770     0.43500
H2738       H  0.66214050  0.56051442  0.11313754     0.43400
C2739       C  0.87691643  0.87834734  0.39998301    -0.05600
C2740       C  0.87052439  0.89959222  0.42488017    -0.33000
C2741       C  0.88990838  0.91683442  0.44175836     0.36200
C2742       C  0.91658122  0.91317396  0.43426520    -0.06000
C2743       C  0.92306294  0.89161154  0.40983317    -0.32900
C2744       C  0.90370928  0.87457107  0.39278102     0.36100
H2745       H  0.85058114  0.90333718  0.43182330     0.16500
O2746       O  0.88241239  0.93664371  0.46614952    -0.60400
H2747       H  0.94329799  0.88813578  0.40340691     0.16500
O2748       O  0.91126457  0.85378807  0.36922889    -0.60500
H2749       H  0.91624806  0.86714606  0.35054996     0.43500
H2750       H  0.87750001  0.95668983  0.45528934     0.43400
C2751       C  0.91897600  0.56392322  0.42043790    -0.05600
C2752       C  0.89479566  0.57076978  0.43439907    -0.33000
C2753       C  0.87540371  0.58696575  0.41691472     0.36200
C2754       C  0.87929532  0.59508323  0.38412519    -0.06000
C2755       C  0.90420602  0.58949172  0.37107281    -0.32900
C2756       C  0.92362093  0.57383122  0.38856318     0.36100
H2757       H  0.89120064  0.56447924  0.45934567     0.16500
O2758       O  0.85310609  0.59553491  0.43256288    -0.60400
H2759       H  0.90947877  0.59808483  0.34746375     0.12900
O2760       O  0.94695022  0.56777133  0.37383689    -0.60500
H2761       H  0.95694495  0.58799344  0.37485378     0.43500
H2762       H  0.85645473  0.61749336  0.44015071     0.43400
C2763       C  0.63279070  0.87539919  0.40465501    -0.05600
C2764       C  0.61094317  0.86158620  0.41997277    -0.33000
C2765       C  0.59271324  0.87988397  0.43640280     0.36200
C2766       C  0.59569699  0.91292868  0.43825279    -0.06000
C2767       C  0.61770231  0.92704079  0.42408916    -0.32900
C2768       C  0.63596751  0.90872608  0.40724234     0.36100
H2769       H  0.60678678  0.83663125  0.41879103     0.16500
O2770       O  0.57211078  0.86500231  0.45117009    -0.60400
H2771       H  0.62027393  0.95250651  0.42503137     0.16500
O2772       O  0.65633110  0.92383336  0.39223404    -0.60500
H2773       H  0.66846719  0.93053853  0.40988729     0.43500
H2774       H  0.55962440  0.85949195  0.43346556     0.43400
C2775       C  0.91673511  0.93314569  0.08109295    -0.05600
C2776       C  0.89173035  0.92820522  0.06744759    -0.33000
C2777       C  0.87238216  0.91118425  0.08404138     0.36200
C2778       C  0.87734578  0.89963360  0.11572048    -0.06000
C2779       C  0.90258618  0.90468322  0.12898984    -0.32900
C2780       C  0.92179114  0.92166765  0.11247558     0.36100
H2781       H  0.88741878  0.93643168  0.04317506     0.16500
O2782       O  0.84907177  0.90528797  0.06838055    -0.60400
H2783       H  0.90813263  0.89469874  0.15207816     0.16500
O2784       O  0.94538563  0.92734261  0.12765499    -0.60500
H2785       H  0.95533622  0.90743799  0.12544987     0.43500
H2786       H  0.85086476  0.88394641  0.05872617     0.43400
O2787       O  0.96024098  0.92623908  0.94489587    -0.75400
O2788       O  0.93058732  0.95815497  0.96875388    -0.54400
C2789       C  0.93660014  0.93456618  0.95080957     0.78300
O2790       O  0.55022320  0.94055793  0.57299080    -0.60000
O2791       O  0.58090754  0.96445536  0.54170821    -0.53100
C2792       C  0.57406669  0.94623279  0.56510415     0.70300
O2793       O  0.96165097  0.94490598  0.57293224    -0.74600
O2794       O  0.93058364  0.96545351  0.53914689    -0.55200
C2795       C  0.93775393  0.94924216  0.56400870     0.76300
O2796       O  0.54816401  0.92319525  0.94595530    -0.59700
O2797       O  0.57923117  0.95581343  0.96846029    -0.52900
C2798       C  0.57205981  0.93177340  0.95132761     0.72900
Zr2799     Zr  0.50397876  0.93998176  0.95895807     2.54700
O2800       O  0.50602750  0.88278231  0.96517322    -0.80300
O2801       O  0.50079329  0.93419676  0.90042362    -0.93700
Zr2802     Zr  0.50646387  0.95560500  0.55518660     2.64700
O2803       O  0.00435016  0.90221408  0.56645100    -0.98700
O2804       O  0.50879739  0.96775596  0.61267973    -0.80700
O2805       O  0.98005043  0.94958327  0.50810832    -0.84100
O2806       O  0.53193899  0.94769882  0.50835387    -2.18800
O2807       O  0.55059391  0.54920808  0.92644539    -0.67500
O2808       O  0.58113649  0.52465804  0.95771121    -0.52100
C2809       C  0.57447861  0.54264672  0.93402066     0.71300
O2810       O  0.96345294  0.56700295  0.55418529    -0.60400
O2811       O  0.93258139  0.53541960  0.53020343    -0.52400
C2812       C  0.93940750  0.55922330  0.54789717     0.73100
O2813       O  0.55104033  0.56555634  0.55295108    -0.71800
O2814       O  0.58148181  0.53287152  0.53135026    -0.50500
C2815       C  0.57480168  0.55735517  0.54776889     0.74500
O2816       O  0.96193190  0.54954991  0.92687186    -0.67100
O2817       O  0.93091870  0.52796030  0.95947045    -0.54300
C2818       C  0.93803099  0.54503032  0.93526087     0.72800
Zr2819     Zr  0.00593498  0.53459682  0.94375682     2.77500
O2820       O  0.00649224  0.59170052  0.93545797    -0.97900
O2821       O  0.00481287  0.52233382  0.88627826    -0.78700
Zr2822     Zr  0.00763588  0.54775035  0.54240281     2.70100
O2823       O  0.50812820  0.60390831  0.53361064    -0.79900
O2824       O  0.00784737  0.55045020  0.60117408    -0.99000
Zr2825     Zr  0.95462577  0.99594281  0.49940850     2.21500
Zr2826     Zr  0.55705974  0.49579553  0.99833381     2.11100
O2827       O  0.53233133  0.54315517  0.99318266    -2.47700
O2828       O  0.98106690  0.54317746  0.99084783    -0.79700
O2829       O  0.52961835  0.98647887  0.95144743    -0.71900
O2830       O  0.98175273  0.50148319  0.54861023    -2.32900
O2831       O  0.98032839  0.99052231  0.95090751    -2.29100
O2832       O  0.53245655  0.50111895  0.54955966    -0.73700
H2833       H  0.54298083  0.92948474  0.51124598     0.78300
H2834       H  0.97064071  0.50368562  0.56719665     0.79400
H2835       H  0.54361232  0.56147645  0.99094170     0.81600
H2836       H  0.96882042  0.98837157  0.93232536     0.79200
H2837       H  0.99091371  0.98281304  0.61723524     0.42300
H2838       H  0.52379086  0.54865712  0.60662864     0.41200
H2839       H  0.00395481  0.60951627  0.51537546     0.40900
H2840       H  0.49390661  0.60094425  0.95896406     0.38800
H2841       H  0.49188338  0.51564816  0.88239918     0.42000
H2842       H  0.99052751  0.95540196  0.89179456     0.36800
H2843       H  0.99833281  0.87866198  0.94063813     0.42900
H2844       H  0.51884239  0.88990356  0.55285025     0.39300
H2845       H  0.02337529  0.59910311  0.94482551     0.44200
H2846       H  0.49414086  0.95475801  0.89254920     0.42900
H2847       H  0.00993104  0.90029114  0.58935626     0.43100
H2848       H  0.01086352  0.57313508  0.60610916     0.43400
C2849       C  0.65541491  0.61183595  0.86285251     0.86300
C2850       C  0.65301595  0.61065750  0.82569100    -0.53900
C2851       C  0.66933146  0.63116596  0.81002307     0.09300
C2852       C  0.68713645  0.65035285  0.83305313     0.20200
C2853       C  0.68480021  0.60525307  0.86943038    -0.54600
C2854       C  0.70126991  0.62548033  0.85356723     0.09400
C2855       C  0.65202870  0.64691073  0.87167306    -0.54200
C2856       C  0.66862361  0.66705502  0.85618335     0.09900
H2857       H  0.63923975  0.59525178  0.81297404     0.14400
H2858       H  0.70078226  0.66662969  0.82064004     0.00200
H2859       H  0.69231210  0.58555894  0.88330637     0.14800
H2860       H  0.63755175  0.65510038  0.88865889     0.14500
C2861       C  0.64970627  0.85559186  0.88486315     0.86300
C2862       C  0.64663872  0.81911144  0.88542001    -0.53900
C2863       C  0.66397958  0.80355531  0.86648182     0.09300
C2864       C  0.68311446  0.82559648  0.84894805     0.20200
C2865       C  0.67855744  0.86127819  0.89471331    -0.54600
C2866       C  0.69588368  0.84572125  0.87575575     0.09400
C2867       C  0.64821521  0.86414300  0.84873207    -0.54200
C2868       C  0.66572382  0.84865682  0.82983118     0.09900
H2869       H  0.63311920  0.80595943  0.90020441     0.14400
H2870       H  0.69726898  0.81261491  0.83394223     0.00200
H2871       H  0.68475469  0.87649198  0.91458491     0.14800
H2872       H  0.63449535  0.88127993  0.83905241     0.14500
C2873       C  0.65732573  0.87972062  0.63548245     0.86300
C2874       C  0.65333846  0.88226888  0.67223199    -0.53900
C2875       C  0.66888389  0.86286799  0.69034653     0.09300
C2876       C  0.68748616  0.84289866  0.67006276     0.20200
C2877       C  0.68692720  0.88632411  0.63133002    -0.54600
C2878       C  0.70249736  0.86683963  0.64932355     0.09400
C2879       C  0.65431490  0.84414282  0.62772249    -0.54200
C2880       C  0.66983803  0.82499022  0.64598437     0.09900
H2881       H  0.63942953  0.89836217  0.68284301     0.14400
H2882       H  0.70031070  0.82714311  0.68457091     0.00200
H2883       H  0.69572312  0.90344635  0.61544320     0.14800
H2884       H  0.64069772  0.83485941  0.60962944     0.14500
C2885       C  0.65325587  0.63645499  0.61450181     0.86300
C2886       C  0.65049224  0.67292630  0.61338097    -0.53900
C2887       C  0.66776542  0.68877255  0.63303147     0.09300
C2888       C  0.68647670  0.66713205  0.65179393     0.20200
C2889       C  0.68217410  0.63107611  0.60604872    -0.54600
C2890       C  0.69956651  0.64689282  0.62575764     0.09400
C2891       C  0.65133628  0.62823310  0.65065063    -0.54200
C2892       C  0.66884196  0.64393260  0.67023166     0.09900
H2893       H  0.63666740  0.68582208  0.59857798     0.14400
H2894       H  0.70068643  0.68037541  0.66728542     0.00200
H2895       H  0.68827871  0.61539312  0.58684544     0.14800
H2896       H  0.63679475  0.61180475  0.65986392     0.14500
C2897       C  0.86005089  0.61574211  0.85988954     0.86300
C2898       C  0.86250963  0.65072951  0.86981292    -0.53900
C2899       C  0.84550960  0.67037749  0.85411409     0.09300
C2900       C  0.82763954  0.65316952  0.82949524     0.20200
C2901       C  0.83094008  0.60717496  0.86459614    -0.54600
C2902       C  0.81401999  0.62692879  0.84886491     0.09400
C2903       C  0.86288781  0.61590872  0.82269405    -0.54200
C2904       C  0.84589416  0.63539286  0.80680949     0.09900
H2905       H  0.87632283  0.65907254  0.88813852     0.14400
H2906       H  0.81398921  0.66909690  0.81652662     0.00200
H2907       H  0.82424408  0.58693761  0.87846488     0.14800
H2908       H  0.87646610  0.60146583  0.80955936     0.14500
C2909       C  0.85849364  0.63522287  0.61147063     0.86300
C2910       C  0.86175081  0.63033222  0.64826910    -0.53900
C2911       C  0.84542362  0.64801338  0.66686523     0.09300
C2912       C  0.82719511  0.66907771  0.64676973     0.20200
C2913       C  0.82893773  0.62859193  0.60495393    -0.54600
C2914       C  0.81271588  0.64622006  0.62381794     0.09400
C2915       C  0.86134766  0.67117631  0.60645686    -0.54200
C2916       C  0.84523731  0.68863707  0.62517089     0.09900
H2917       H  0.87584752  0.61403648  0.65862500     0.14400
H2918       H  0.81375176  0.68379299  0.66104448     0.00200
H2919       H  0.82109022  0.61158680  0.58775644     0.14800
H2920       H  0.87552641  0.68195947  0.59043700     0.14500
C2921       C  0.86093013  0.87810736  0.63875912     0.86300
C2922       C  0.86315914  0.84368908  0.62725840    -0.53900
C2923       C  0.84655965  0.82326607  0.64213164     0.09300
C2924       C  0.82905245  0.83862819  0.66724879     0.20200
C2925       C  0.83175878  0.88635435  0.63440118    -0.54600
C2926       C  0.81514249  0.86544379  0.64910554     0.09400
C2927       C  0.86450791  0.87633719  0.67595101    -0.54200
C2928       C  0.84763871  0.85585519  0.69073372     0.09900
H2929       H  0.87704844  0.83601653  0.60928920     0.14400
H2930       H  0.81557445  0.82172099  0.67930353     0.00200
H2931       H  0.82490195  0.90648464  0.62050816     0.14800
H2932       H  0.87782073  0.89092504  0.69011729     0.14500
C2933       C  0.85393635  0.86089289  0.88495918     0.86300
C2934       C  0.85578605  0.86659925  0.84840445    -0.53900
C2935       C  0.83928473  0.84833787  0.82996542     0.09300
C2936       C  0.82177477  0.82624739  0.84998686     0.20200
C2937       C  0.82479573  0.86634355  0.89240965    -0.54600
C2938       C  0.80812774  0.84805981  0.87418859     0.09400
C2939       C  0.85740111  0.82497873  0.88931607    -0.54200
C2940       C  0.84105810  0.80672459  0.87053509     0.09900
H2941       H  0.86960743  0.88323900  0.83794957     0.14400
H2942       H  0.80785998  0.81199678  0.83507521     0.00200
H2943       H  0.81742121  0.88252289  0.91032216     0.14800
H2944       H  0.87177742  0.81506074  0.90584235     0.14500
C2945       C  0.83950866  0.84958859  0.79406449    -0.05600
C2946       C  0.84139372  0.87915335  0.77877094    -0.33000
C2947       C  0.84369812  0.88139929  0.74527651     0.36200
C2948       C  0.84496087  0.85376268  0.72632010    -0.06000
C2949       C  0.84230914  0.82414147  0.74134319    -0.32900
C2950       C  0.83936589  0.82189532  0.77497168     0.36100
H2951       H  0.84084504  0.90073503  0.79289306     0.16500
O2952       O  0.84410895  0.91082308  0.73128002    -0.60400
H2953       H  0.84287835  0.80267009  0.72703737     0.16500
O2954       O  0.83781678  0.79254533  0.78900620    -0.60500
H2955       H  0.81984463  0.78474758  0.78411299     0.43500
H2956       H  0.82611316  0.91402690  0.72275265     0.43400
C2957       C  0.84681821  0.78901843  0.63627411    -0.05600
C2958       C  0.86258103  0.77005262  0.65603891    -0.33000
C2959       C  0.86307320  0.73733597  0.65144799     0.36200
C2960       C  0.84703286  0.72326178  0.62754534    -0.06000
C2961       C  0.83160385  0.74222611  0.60732358    -0.32900
C2962       C  0.83152352  0.77518689  0.61146948     0.36100
H2963       H  0.87454727  0.78069955  0.67500430     0.16500
O2964       O  0.87892808  0.71920090  0.67078806    -0.60400
H2965       H  0.81941992  0.73144048  0.58866085     0.16500
O2966       O  0.81692060  0.79380035  0.59104465    -0.60500
H2967       H  0.79855885  0.78648265  0.59331795     0.43500
H2968       H  0.89551965  0.71733007  0.65883810     0.43400
C2969       C  0.84439009  0.64524253  0.70280537    -0.05600
C2970       C  0.84715790  0.61529506  0.71709141    -0.33000
C2971       C  0.84693869  0.61156862  0.75070843     0.36200
C2972       C  0.84452327  0.63821085  0.77095068    -0.06000
C2973       C  0.84061487  0.66796855  0.75676437    -0.32900
C2974       C  0.84012207  0.67159997  0.72306332     0.36100
H2975       H  0.84900891  0.59442938  0.70210087     0.16500
O2976       O  0.84758332  0.58159846  0.76345146    -0.60400
H2977       H  0.83843668  0.68873293  0.77183235     0.16500
O2978       O  0.83670838  0.70128901  0.71045301    -0.60500
H2979       H  0.81822686  0.70666805  0.71469988     0.43500
H2980       H  0.86535394  0.57360089  0.75904263     0.43400
C2981       C  0.84426578  0.70503883  0.86038531    -0.05600
C2982       C  0.86742927  0.72275268  0.86460180    -0.33000
C2983       C  0.86677836  0.75569279  0.86873461     0.36200
C2984       C  0.84258852  0.77157575  0.86863235    -0.06000
C2985       C  0.81948514  0.75373138  0.86488692    -0.32900
C2986       C  0.82011824  0.72084157  0.86128296     0.36100
H2987       H  0.88621505  0.71119228  0.86360323     0.16500
O2988       O  0.88994901  0.77228941  0.87030051    -0.60400
H2989       H  0.80071716  0.76527235  0.86471805     0.16500
O2990       O  0.79688841  0.70448441  0.85886999    -0.60500
H2991       H  0.79420153  0.69498735  0.88049882     0.43500
H2992       H  0.89764589  0.76733280  0.89181418     0.43400
C2993       C  0.72843989  0.64387034  0.62395111    -0.05600
C2994       C  0.74279303  0.64035128  0.65279648    -0.33000
C2995       C  0.77013239  0.64021478  0.65284265     0.36200
C2996       C  0.78373306  0.64326356  0.62358713    -0.06000
C2997       C  0.76943421  0.64559540  0.59449717    -0.32900
C2998       C  0.74194314  0.64589929  0.59450586     0.36100
H2999       H  0.73275952  0.63793188  0.67558365     0.16500
O3000       O  0.78340696  0.63619305  0.68156610    -0.60400
H3001       H  0.77960186  0.64836126  0.57185526     0.16500
O3002       O  0.72857929  0.65031388  0.56594347    -0.60500
H3003       H  0.72920070  0.62963510  0.55463689     0.43500
H3004       H  0.78079036  0.65600689  0.69394195     0.43400
C3005       C  0.66957896  0.79013556  0.64277554    -0.05600
C3006       C  0.67375693  0.77612727  0.61253267    -0.33000
C3007       C  0.67330698  0.74311090  0.60905197     0.36200
C3008       C  0.66835568  0.72372597  0.63596416    -0.06000
C3009       C  0.66368140  0.73784831  0.66597492    -0.32900
C3010       C  0.66478919  0.77075538  0.66968709     0.36100
H3011       H  0.67768660  0.79083554  0.59167937     0.16500
O3012       O  0.67842390  0.72995716  0.57952224    -0.60400
H3013       H  0.65829859  0.72349066  0.68638775     0.16500
O3014       O  0.65968738  0.78382100  0.69928031    -0.60500
H3015       H  0.67625266  0.78210061  0.71184947     0.43500
H3016       H  0.66176965  0.73130744  0.56708858     0.43400
C3017       C  0.73129591  0.86728838  0.64755919    -0.05600
C3018       C  0.74540784  0.89538445  0.65357305    -0.33000
C3019       C  0.77283909  0.89553065  0.65353006     0.36200
C3020       C  0.78631479  0.86726113  0.64741194    -0.06000
C3021       C  0.77206828  0.83944311  0.64095083    -0.32900
C3022       C  0.74480928  0.83932113  0.64076362     0.36100
H3023       H  0.73515413  0.91699794  0.65915104     0.16500
O3024       O  0.78622967  0.92275251  0.66158184    -0.60400
H3025       H  0.78211477  0.81758231  0.63607250     0.16500
O3026       O  0.73151099  0.81204933  0.63261982    -0.60500
H3027       H  0.73330824  0.79793200  0.65164107     0.43500
H3028       H  0.78501959  0.93643438  0.64216630     0.43400
C3029       C  0.66692901  0.85307313  0.79414435    -0.05600
C3030       C  0.64358368  0.85611530  0.77619147    -0.33000
C3031       C  0.64386401  0.85997878  0.74258415     0.36200
C3032       C  0.66782889  0.86071540  0.72615888    -0.06000
C3033       C  0.69117853  0.85796271  0.74405022    -0.32900
C3034       C  0.69091111  0.85402025  0.77768610     0.36100
H3035       H  0.62489664  0.85475749  0.78815159     0.16500
O3036       O  0.62054961  0.86103636  0.72587011    -0.60400
H3037       H  0.70981952  0.85903930  0.73194048     0.16500
O3038       O  0.71424201  0.85258116  0.79429182    -0.60500
H3039       H  0.72220628  0.83223595  0.78788384     0.43500
H3040       H  0.61310981  0.88206013  0.73083356     0.43400
C3041       C  0.72449476  0.84888271  0.87921308    -0.05600
C3042       C  0.73864473  0.82566128  0.89584558    -0.33000
C3043       C  0.76609497  0.82576985  0.89527211     0.36200
C3044       C  0.77943754  0.84908887  0.87749878    -0.06000
C3045       C  0.76526983  0.87309755  0.86204666    -0.32900
C3046       C  0.73791846  0.87330124  0.86317917     0.36100
H3047       H  0.72838844  0.80712742  0.90876145     0.16500
O3048       O  0.77986640  0.80366270  0.91268056    -0.60400
H3049       H  0.77543678  0.89135336  0.84862837     0.16500
O3050       O  0.72440732  0.89669927  0.84744239    -0.60500
H3051       H  0.72094687  0.91284469  0.86421978     0.43500
H3052       H  0.77294547  0.78269619  0.90575630     0.43400
C3053       C  0.66993279  0.63434726  0.77422190    -0.05600
C3054       C  0.66626970  0.60752144  0.75450152    -0.33000
C3055       C  0.66628970  0.61005526  0.72075162     0.36200
C3056       C  0.67015104  0.63981555  0.70599044    -0.06000
C3057       C  0.67510275  0.66621440  0.72578139    -0.32900
C3058       C  0.67425182  0.66395571  0.75939550     0.36100
H3059       H  0.66361528  0.58436542  0.76524618     0.16500
O3060       O  0.66309745  0.58311762  0.70256500    -0.60400
H3061       H  0.67906198  0.68907035  0.71539060     0.16500
O3062       O  0.67680231  0.69119561  0.77725616    -0.60500
H3063       H  0.65868945  0.69750382  0.78234690     0.43500
H3064       H  0.68094100  0.57738325  0.69568799     0.43400
C3065       C  0.73012665  0.62253883  0.85294436    -0.05600
C3066       C  0.74275296  0.62620928  0.82325855    -0.33000
C3067       C  0.76995183  0.62668375  0.82157042     0.36200
C3068       C  0.78519971  0.62345574  0.84992059    -0.06000
C3069       C  0.77267474  0.61846160  0.87953717    -0.32900
C3070       C  0.74528721  0.61819400  0.88123022     0.36100
H3071       H  0.73145228  0.62891127  0.80111764     0.16500
O3072       O  0.78136198  0.63040564  0.79198060    -0.60400
H3073       H  0.78413205  0.61607289  0.90159050     0.16500
O3074       O  0.73362502  0.61496950  0.91071219    -0.60500
H3075       H  0.73396070  0.63649003  0.92030507     0.43500
H3076       H  0.78624935  0.60877977  0.78513945     0.43400
C3077       C  0.66763585  0.70193328  0.85975342    -0.05600
C3078       C  0.64340598  0.71718604  0.85804191    -0.33000
C3079       C  0.64189264  0.75020150  0.86002125     0.36200
C3080       C  0.66487648  0.76852589  0.86408376    -0.06000
C3081       C  0.68909599  0.75325570  0.86580928    -0.32900
C3082       C  0.69062518  0.72023279  0.86352495     0.36100
H3083       H  0.62560253  0.70349985  0.85427626     0.16500
O3084       O  0.61806863  0.76443714  0.85599085    -0.60400
H3085       H  0.70692905  0.76692205  0.86928247     0.16500
O3086       O  0.71453770  0.70598134  0.86645914    -0.60500
H3087       H  0.72392242  0.71124859  0.84630499     0.43500
H3088       H  0.60841453  0.76002721  0.87614989     0.43400
C3089       C  0.59564986  0.55756799  0.91450071    -0.05600
C3090       C  0.58898316  0.57754400  0.88860525    -0.33000
C3091       C  0.60810448  0.59450237  0.87181918     0.36200
C3092       C  0.63495484  0.59109647  0.87974399    -0.06000
C3093       C  0.64164887  0.57027275  0.90504440    -0.32900
C3094       C  0.62244704  0.55368686  0.92221585     0.36100
H3095       H  0.56868806  0.58102181  0.88183059     0.16500
O3096       O  0.60018989  0.61488073  0.84787849    -0.60400
H3097       H  0.66164430  0.56741900  0.91293657     0.16500
O3098       O  0.63025276  0.53490985  0.94752228    -0.60500
H3099       H  0.63477155  0.51432613  0.93761720     0.43500
H3100       H  0.59540681  0.63466940  0.85916832     0.43400
C3101       C  0.63680565  0.89903309  0.61685212    -0.05600
C3102       C  0.61042315  0.89081016  0.62220088    -0.33000
C3103       C  0.58988420  0.90594864  0.60613714     0.36200
C3104       C  0.59519962  0.93032218  0.58383021    -0.06000
C3105       C  0.62137181  0.93917197  0.57883063    -0.32900
C3106       C  0.64200344  0.92399910  0.59489817     0.36100
H3107       H  0.60562451  0.87206297  0.63905534     0.16500
O3108       O  0.56472590  0.89671210  0.61275536    -0.60400
H3109       H  0.62608939  0.95813138  0.56221531     0.16500
O3110       O  0.66678902  0.93466364  0.58901604    -0.60500
H3111       H  0.67163479  0.92485678  0.56817052     0.43500
H3112       H  0.56200536  0.87642853  0.60104924     0.43400
C3113       C  0.91824758  0.57896930  0.56233887    -0.05600
C3114       C  0.92502103  0.60496795  0.58202903    -0.33000
C3115       C  0.90592336  0.62316718  0.59716336     0.36200
C3116       C  0.87895194  0.61620803  0.59270374    -0.06000
C3117       C  0.87214043  0.59068839  0.57218948    -0.32900
C3118       C  0.89131690  0.57219278  0.55734388     0.36100
H3119       H  0.94537136  0.61117386  0.58625369     0.16500
O3120       O  0.91395146  0.64805740  0.61629423    -0.60400
H3121       H  0.85200618  0.58404947  0.56788799     0.16500
O3122       O  0.88327423  0.54749968  0.53798797    -0.60500
H3123       H  0.88108314  0.52925238  0.55281350     0.43500
H3124       H  0.91929929  0.63846893  0.63719178     0.43400
C3125       C  0.59569080  0.57776352  0.56203621    -0.05600
C3126       C  0.61801183  0.56424841  0.57610461    -0.33000
C3127       C  0.63664514  0.58307106  0.59254865     0.36200
C3128       C  0.63383150  0.61640955  0.59424023    -0.06000
C3129       C  0.61169677  0.62976274  0.57898943    -0.32900
C3130       C  0.59279785  0.61083153  0.56336075     0.36100
H3131       H  0.62050618  0.53881084  0.57555233     0.16500
O3132       O  0.65746325  0.56850050  0.60731755    -0.60400
H3133       H  0.60795595  0.65476890  0.57974254     0.16500
O3134       O  0.57168120  0.62505877  0.54885460    -0.60500
H3135       H  0.55974832  0.63034544  0.56673348     0.43500
H3136       H  0.65081980  0.56091322  0.62837454     0.43400
C3137       C  0.87485198  0.88001971  0.90347915    -0.05600
C3138       C  0.86871326  0.90359507  0.92618032    -0.33000
C3139       C  0.88838539  0.92142100  0.94183324     0.36200
C3140       C  0.91501371  0.91579415  0.93535454    -0.06000
C3141       C  0.92113852  0.89202843  0.91304266    -0.32900
C3142       C  0.90155600  0.87458325  0.89708988     0.36100
H3143       H  0.84877163  0.90897965  0.93195807     0.16500
O3144       O  0.88118178  0.94402338  0.96371892    -0.60400
H3145       H  0.94130407  0.88702556  0.90740121     0.16500
O3146       O  0.90879065  0.85183731  0.87532855    -0.60500
H3147       H  0.91426317  0.86357649  0.85576011     0.43500
H3148       H  0.87723711  0.96309685  0.95063184     0.43400
C3149       C  0.91752957  0.56100058  0.91553020    -0.05600
C3150       C  0.89388283  0.57002975  0.92952179    -0.33000
C3151       C  0.87525272  0.58737478  0.91187302     0.36200
C3152       C  0.87938971  0.59497363  0.87893189    -0.06000
C3153       C  0.90324073  0.58572715  0.86522244    -0.32900
C3154       C  0.92195073  0.56894679  0.88296752     0.36100
H3155       H  0.89019135  0.56469215  0.95467180     0.16500
O3156       O  0.85320049  0.59712777  0.92736296    -0.60400
H3157       H  0.90846516  0.59241287  0.84100847     0.12900
O3158       O  0.94447381  0.56008195  0.86789076    -0.60500
H3159       H  0.95596536  0.57912597  0.86845859     0.43500
H3160       H  0.85822320  0.61730881  0.93810610     0.43400
C3161       C  0.63032060  0.87500402  0.90464578    -0.05600
C3162       C  0.60870680  0.86087253  0.92010530    -0.33000
C3163       C  0.59003429  0.87912933  0.93572866     0.36200
C3164       C  0.59257674  0.91225576  0.93665867    -0.06000
C3165       C  0.61430669  0.92662286  0.92229050    -0.32900
C3166       C  0.63291046  0.90841446  0.90620463     0.36100
H3167       H  0.60521594  0.83574085  0.91976394     0.16500
O3168       O  0.56956465  0.86421363  0.95075207    -0.60400
H3169       H  0.61643269  0.95216548  0.92256097     0.16500
O3170       O  0.65301704  0.92364428  0.89080072    -0.60500
H3171       H  0.66514358  0.93084690  0.90825592     0.43500
H3172       H  0.55731292  0.85780694  0.93310786     0.43400
C3173       C  0.91727539  0.93393186  0.58374553    -0.05600
C3174       C  0.89413587  0.92271917  0.56904932    -0.33000
C3175       C  0.87577426  0.90525769  0.58671574     0.36200
C3176       C  0.87971778  0.89971245  0.62020449    -0.06000
C3177       C  0.90276108  0.91185307  0.63482092    -0.32900
C3178       C  0.92131646  0.92860682  0.61701049     0.36100
H3179       H  0.89076203  0.92625635  0.54340099     0.16500
O3180       O  0.85421926  0.89315722  0.57077689    -0.60400
H3181       H  0.90758660  0.90752315  0.65981095     0.16500
O3182       O  0.94328717  0.94007108  0.63260434    -0.60500
H3183       H  0.95465005  0.92143643  0.63602818     0.43500
H3184       H  0.86026964  0.87351413  0.56021210     0.43400
loop_ 
_geom_bond_atom_site_label_1 
_geom_bond_atom_site_label_2 
_geom_bond_distance 
_geom_bond_site_symmetry_2 
_ccdc_geom_bond_type 
O1            C3   1.291       .  A
O1        Zr1605   2.450       .  S
O2            C3   1.286       .  A
O2         Zr437   2.421       .  S
C3          C354   1.492       .  S
O4            C6   1.293       .  A
O4          Zr16   2.461       .  S
O5            C6   1.286       .  A
O5        Zr1234   2.425   1_554  S
C6          C318   1.490       .  S
O7            C9   1.289       .  A
O7        Zr1608   2.445       .  S
O8            C9   1.289       .  A
O8          Zr39   2.438   1_554  S
C9          C387   1.488       .  S
O10          C12   1.290       .  A
O10         Zr13   2.446       .  S
O11          C12   1.287       .  A
O11        Zr836   2.431       .  S
C12         C378   1.483       .  S
Zr13       O1593   2.450   1_455  S
Zr13         O14   2.434       .  S
Zr13         O15   2.435       .  S
Zr13         O43   2.375       .  S
Zr13       O2009   2.372   1_455  S
Zr13        O418   2.371       .  S
Zr13       O1637   2.371   1_455  S
O14        H1649   0.990       .  S
O15          H60   0.990   1_455  S
O15        H1648   0.990   1_455  S
Zr16       O1599   2.450   1_455  S
Zr16         O18   2.434       .  S
Zr16       O1609   2.438       .  S
Zr16         O20   2.371       .  S
Zr16       O1611   2.377   1_455  S
Zr16       O2432   2.370   1_455  S
Zr16        O842   2.367       .  S
O17       Zr1608   2.437       .  S
O17          H61   0.990       .  S
O17        H1650   0.990       .  S
O18        H1643   0.990       .  S
O19         Zr39   2.382   1_554  S
O19       Zr2003   2.371   1_554  S
O19       Zr1608   2.368       .  S
O20        Zr411   2.370   1_554  S
O20       Zr1234   2.385   1_554  S
O20          H47   0.966       .  S
O21          C23   1.290       .  A
O21       Zr1625   2.445       .  S
O22          C23   1.284       .  A
O22         Zr40   2.409   1_545  S
C23         C303   1.486       .  S
O24          C26   1.290       .  A
O24         Zr36   2.445       .  S
O25          C26   1.288       .  A
O25        Zr835   2.434   1_544  S
C26         C327   1.496       .  S
O27          C29   1.287       .  A
O27       Zr1628   2.436       .  S
O28          C29   1.289       .  A
O28        Zr438   2.438   1_544  S
C29         C339   1.480       .  S
O30          C32   1.288       .  A
O30         Zr33   2.440       .  S
O31          C32   1.287       .  A
O31       Zr1233   2.422   1_545  S
C32         C363   1.485       .  S
Zr33       O1613   2.448       .  S
Zr33         O34   2.436       .  S
Zr33         O35   2.435       .  S
Zr33         O42   2.380       .  S
Zr33       O1633   2.372       .  S
Zr33        O841   2.368   1_545  S
Zr33       O2431   2.365   1_545  S
O34          H59   0.990       .  S
O34        H1646   0.990       .  S
O35        H1647   0.990       .  S
Zr36       O1619   2.440       .  S
Zr36         O38   2.436       .  S
Zr36       O1629   2.435       .  S
Zr36         O44   2.371   1_545  S
Zr36        O440   2.370   1_554  S
Zr36       O2031   2.373   1_554  S
Zr36       O1638   2.373       .  S
O37       Zr1628   2.434       .  S
O37        H1645   0.990   1_455  S
O38          H62   0.990       .  S
O38        H1644   0.990       .  S
Zr39        O400   2.424       .  S
Zr39        O821   2.433   1_556  S
Zr39       O1225   2.427       .  S
Zr39       O1236   2.381       .  S
Zr39        O840   2.384   1_556  S
Zr39        O443   2.393       .  S
Zr40       O1199   2.420       .  S
Zr40        O807   2.445       .  S
Zr40        O426   2.439   1_565  S
Zr40         O41   2.391   1_565  S
Zr40       O1214   2.385       .  S
Zr40        O839   2.382       .  S
Zr40        O444   2.385   1_565  S
O41       Zr1625   2.373       .  S
O41       Zr2026   2.374       .  S
O41          H49   0.966       .  S
O42        Zr434   2.371       .  S
O42       Zr1233   2.386   1_545  S
O43       Zr2421   2.368       .  S
O43        Zr836   2.379       .  S
O44       Zr2404   2.370       .  S
O44        Zr835   2.382   1_554  S
O44          H48   0.968   1_565  S
O45       Zr1605   2.372       .  S
O45        Zr829   2.365       .  S
O45        Zr437   2.382       .  S
O45          H50   0.967       .  S
O46        Zr812   2.370   1_545  S
O46       Zr1628   2.374       .  S
O46        Zr438   2.384   1_544  S
H51        O1610   0.990       .  S
H52        O1630   0.990       .  S
H53        O1629   0.990       .  S
H54        O1626   0.990   1_655  S
H55        O1627   0.990       .  S
H56        O1607   0.990       .  S
H57        O1606   0.990       .  S
H58        O1609   0.990   1_655  S
C63          C64   1.540       .  S
C63          C69   1.537       .  S
C63          C67   1.552       .  S
C63         C306   1.529       .  S
C64          H71   1.086       .  S
C64          C65   1.364       .  D
C65          C66   1.536       .  S
C65         C267   1.484       .  S
C66          C70   1.533       .  S
C66          C68   1.532       .  S
C66          H72   1.109       .  S
C67          H73   1.081       .  S
C67          C68   1.368       .  D
C68         C279   1.482       .  S
C69          H74   1.087       .  S
C69          C70   1.360       .  D
C70         C291   1.476       .  S
C75          C76   1.548       .  S
C75          C81   1.537       .  S
C75          C79   1.546       .  S
C75         C375   1.539       .  S
C76          H83   1.081       .  S
C76          C77   1.362       .  D
C77          C78   1.532       .  S
C77         C294   1.482       .  S
C78          C82   1.535       .  S
C78          C80   1.532       .  S
C78          H84   1.110       .  S
C79          H85   1.085       .  S
C79          C80   1.368       .  D
C80         C255   1.472       .  S
C81          H86   1.086       .  S
C81          C82   1.367       .  D
C82         C243   1.483       .  S
C87          C88   1.547       .  S
C87          C93   1.544       .  S
C87          C91   1.549       .  S
C87         C315   1.543       .  S
C88          H95   1.081       .  S
C88          C89   1.360       .  D
C89          C90   1.529       .  S
C89         C246   1.481       .  S
C90          C94   1.531       .  S
C90          C92   1.538       .  S
C90          H96   1.110       .  S
C91          H97   1.085       .  S
C91          C92   1.373       .  D
C92         C231   1.487       .  S
C93          H98   1.086       .  S
C93          C94   1.366       .  D
C94         C219   1.481       .  S
C99         C100   1.548       .  S
C99         C105   1.540       .  S
C99         C103   1.544       .  S
C99         C342   1.541       .  S
C100        H107   1.079       .  S
C100        C101   1.360       .  D
C101        C102   1.537       .  S
C101        C222   1.484       .  S
C102        C106   1.539       .  S
C102        C104   1.539       .  S
C102        H108   1.111       .  S
C103        H109   1.086       .  S
C103        C104   1.370       .  D
C104        C207   1.486       .  S
C105        H110   1.086       .  S
C105        C106   1.367       .  D
C106        C270   1.491       .  S
C111        C112   1.534       .  S
C111        C117   1.545       .  S
C111        C115   1.548       .  S
C111        C366   1.533       .  S
C112        H119   1.086       .  S
C112        C113   1.364       .  D
C113        C114   1.537       .  S
C113        C195   1.484       .  S
C114        C118   1.534       .  S
C114        C116   1.537       .  S
C114        H120   1.108       .  S
C115        H121   1.084       .  S
C115        C116   1.370       .  D
C116        C282   1.485       .  S
C117        H122   1.083       .  S
C117        C118   1.363       .  D
C118        C186   1.487       .  S
C123        C124   1.542       .  S
C123        C129   1.538       .  S
C123        C127   1.554       .  S
C123        C330   1.537       .  S
C124        H131   1.086       .  S
C124        C125   1.367       .  D
C125        C126   1.534       .  S
C125        C183   1.488       .  S
C126        C130   1.529       .  S
C126        C128   1.534       .  S
C126        H132   1.109       .  S
C127        H133   1.082       .  S
C127        C128   1.371       .  D
C128        C210   1.486       .  S
C129        H134   1.086       .  S
C129        C130   1.360       .  D
C130        C174   1.469       .  S
C135        C136   1.536       .  S
C135        C141   1.549       .  S
C135        C139   1.549       .  S
C135        C390   1.542       .  S
C136        H143   1.087       .  S
C136        C137   1.361       .  D
C137        C138   1.535       .  S
C137        C171   1.476       .  S
C138        C142   1.536       .  S
C138        C140   1.539       .  S
C138        H144   1.111       .  S
C139        H145   1.085       .  S
C139        C140   1.372       .  D
C140        C234   1.490       .  S
C141        H146   1.081       .  S
C141        C142   1.367       .  D
C142        C162   1.490       .  S
C147        C148   1.543       .  S
C147        C153   1.539       .  S
C147        C151   1.543       .  S
C147        C351   1.535       .  S
C148        H155   1.086       .  S
C148        C149   1.369       .  D
C149        C150   1.538       .  S
C149        C159   1.493       .  S
C150        C154   1.540       .  S
C150        C152   1.537       .  S
C150        H156   1.109       .  S
C151        H157   1.081       .  S
C151        C152   1.362       .  D
C152        C258   1.475       .  S
C153        H158   1.085       .  S
C153        C154   1.366       .  D
C154        C198   1.488       .  S
C159        C160   1.405       .  A
C159        C164   1.412       .  A
C160        C161   1.401       .  A
C160        H165   1.083       .  S
C161        C162   1.412       .  A
C161        O166   1.372       .  S
C162        C163   1.403       .  A
C163        C164   1.406       .  A
C163        H167   1.084       .  S
C164        O168   1.372       .  S
O166        H170   0.992       .  S
O168        H169   0.992       .  S
C171        C172   1.403       .  A
C171        C176   1.408       .  A
C172        C173   1.399       .  A
C172        H177   1.084       .  S
C173        C174   1.405       .  A
C173        O178   1.372       .  S
C174        C175   1.398       .  A
C175        C176   1.404       .  A
C175        H179   1.084       .  S
C176        O180   1.374       .  S
O178        H182   0.992       .  S
O180        H181   0.993       .  S
C183        C184   1.404       .  A
C183        C188   1.411       .  A
C184        C185   1.400       .  A
C184        H189   1.083       .  S
C185        C186   1.410       .  A
C185        O190   1.372       .  S
C186        C187   1.403       .  A
C187        C188   1.402       .  A
C187        H191   1.084       .  S
C188        O192   1.372       .  S
O190        H194   0.992       .  S
O192        H193   0.992       .  S
C195        C196   1.405       .  A
C195        C200   1.408       .  A
C196        C197   1.402       .  A
C196        H201   1.083       .  S
C197        C198   1.413       .  A
C197        O202   1.372       .  S
C198        C199   1.402       .  A
C199        C200   1.395       .  A
C199        H203   1.079       .  S
C200        O204   1.371       .  S
O202        H206   0.992       .  S
O204        H205   0.992       .  S
C207        C208   1.402       .  A
C207        C212   1.410       .  A
C208        C209   1.400       .  A
C208        H213   1.084       .  S
C209        C210   1.409       .  A
C209        O214   1.372       .  S
C210        C211   1.405       .  A
C211        C212   1.406       .  A
C211        H215   1.083       .  S
C212        O216   1.371       .  S
O214        H218   0.992       .  S
O216        H217   0.991       .  S
C219        C220   1.404       .  A
C219        C224   1.406       .  A
C220        C221   1.405       .  A
C220        H225   1.083       .  S
C221        C222   1.410       .  A
C221        O226   1.372       .  S
C222        C223   1.399       .  A
C223        C224   1.397       .  A
C223        H227   1.074       .  S
C224        O228   1.372       .  S
O226        H230   0.992       .  S
O228        H229   0.992       .  S
C231        C232   1.406       .  A
C231        C236   1.407       .  A
C232        C233   1.409       .  A
C232        H237   1.083       .  S
C233        C234   1.411       .  A
C233        O238   1.371       .  S
C234        C235   1.400       .  A
C235        C236   1.396       .  A
C235        H239   1.076       .  S
C236        O240   1.373       .  S
O238        H242   0.992       .  S
O240        H241   0.992       .  S
C243        C244   1.402       .  A
C243        C248   1.410       .  A
C244        C245   1.398       .  A
C244        H249   1.084       .  S
C245        C246   1.409       .  A
C245        O250   1.372       .  S
C246        C247   1.402       .  A
C247        C248   1.402       .  A
C247        H251   1.084       .  S
C248        O252   1.371       .  S
O250        H254   0.992       .  S
O252        H253   0.992       .  S
C255        C256   1.399       .  A
C255        C260   1.405       .  A
C256        C257   1.402       .  A
C256        H261   1.082       .  S
C257        C258   1.406       .  A
C257        O262   1.374       .  S
C258        C259   1.403       .  A
C259        C260   1.401       .  A
C259        H263   1.084       .  S
C260        O264   1.371       .  S
O262        H266   0.992       .  S
O264        H265   0.992       .  S
C267        C268   1.406       .  A
C267        C272   1.407       .  A
C268        C269   1.402       .  A
C268        H273   1.083       .  S
C269        C270   1.412       .  A
C269        O274   1.371       .  S
C270        C271   1.402       .  A
C271        C272   1.396       .  A
C271        H275   1.073       .  S
C272        O276   1.372       .  S
O274        H278   0.992       .  S
O276        H277   0.992       .  S
C279        C280   1.402       .  A
C279        C284   1.409       .  A
C280        C281   1.397       .  A
C280        H285   1.084       .  S
C281        C282   1.409       .  A
C281        O286   1.372       .  S
C282        C283   1.406       .  A
C283        C284   1.404       .  A
C283        H287   1.083       .  S
C284        O288   1.372       .  S
O286        H290   0.992       .  S
O288        H289   0.992       .  S
C291        C292   1.402       .  A
C291        C296   1.405       .  A
C292        C293   1.399       .  A
C292        H297   1.084       .  S
C293        C294   1.409       .  A
C293        O298   1.372       .  S
C294        C295   1.404       .  A
C295        C296   1.400       .  A
C295        H299   1.080       .  S
C296        O300   1.373       .  S
O298        H302   0.992       .  S
O300        H301   0.991       .  S
C303        C304   1.403       .  A
C303        C308   1.413       .  A
C304        C305   1.396       .  A
C304        H309   1.083       .  S
C305        C306   1.416       .  A
C305        O310   1.373       .  S
C306        C307   1.408       .  A
C307        C308   1.400       .  A
C307        H311   1.077       .  S
C308        O312   1.372       .  S
O310        H314   0.992       .  S
O312        H313   0.992       .  S
C315        C316   1.415       .  A
C315        C320   1.416       .  A
C316        C317   1.399       .  A
C316        H321   1.077       .  S
C317        C318   1.406       .  A
C317        O322   1.372       .  S
C318        C319   1.407       .  A
C319        C320   1.409       .  A
C319        H323   1.084       .  S
C320        O324   1.372       .  S
O322        H326   0.992       .  S
O324        H325   0.992       .  S
C327        C328   1.405       .  A
C327        C332   1.414       .  A
C328        C329   1.398       .  A
C328        H333   1.083       .  S
C329        C330   1.416       .  A
C329        O334   1.373       .  S
C330        C331   1.411       .  A
C331        C332   1.407       .  A
C331        H335   1.078       .  S
C332        O336   1.372       .  S
O334        H338   0.992       .  S
O336        H337   0.992       .  S
C339        C340   1.402       .  A
C339        C344   1.405       .  A
C340        C341   1.407       .  A
C340        H345   1.084       .  S
C341        C342   1.419       .  A
C341        O346   1.372       .  S
C342        C343   1.413       .  A
C343        C344   1.397       .  A
C343        H347   1.074       .  S
C344        O348   1.373       .  S
O346        H350   0.992       .  S
O348        H349   0.992       .  S
C351        C352   1.412       .  A
C351        C356   1.414       .  A
C352        C353   1.404       .  A
C352        H357   1.077       .  S
C353        C354   1.413       .  A
C353        O358   1.372       .  S
C354        C355   1.404       .  A
C355        C356   1.397       .  A
C355        H359   1.083       .  S
C356        O360   1.373       .  S
O358        H362   0.992       .  S
O360        H361   0.992       .  S
C363        C364   1.406       .  A
C363        C368   1.409       .  A
C364        C365   1.403       .  A
C364        H369   1.084       .  S
C365        C366   1.417       .  A
C365        O370   1.370       .  S
C366        C367   1.411       .  A
C367        C368   1.395       .  A
C367        H371   1.080       .  S
C368        O372   1.372       .  S
O370        H374   0.992       .  S
O372        H373   0.992       .  S
C375        C376   1.413       .  A
C375        C380   1.418       .  A
C376        C377   1.397       .  A
C376        H381   1.076       .  S
C377        C378   1.405       .  A
C377        O382   1.372       .  S
C378        C379   1.404       .  A
C379        C380   1.407       .  A
C379        H383   1.083       .  S
C380        O384   1.372       .  S
O382        H386   0.992       .  S
O384        H385   0.992       .  S
C387        C388   1.404       .  A
C387        C392   1.408       .  A
C388        C389   1.407       .  A
C388        H393   1.084       .  S
C389        C390   1.418       .  A
C389        O394   1.371       .  S
C390        C391   1.412       .  A
C391        C392   1.401       .  A
C391        H395   1.077       .  S
C392        O396   1.373       .  S
O394        H398   0.992       .  S
O396        H397   0.992       .  S
O399        C401   1.290       .  A
O399      Zr2003   2.445       .  S
O400        C401   1.287       .  A
C401        C752   1.494       .  S
O402        C404   1.288       .  A
O402       Zr414   2.438       .  S
O403        C404   1.286       .  A
O403       Zr836   2.421       .  S
C404        C716   1.481       .  S
O405        C407   1.291       .  A
O405      Zr2006   2.453       .  S
O406        C407   1.286       .  A
O406       Zr437   2.421       .  S
C407        C785   1.479       .  S
O408        C410   1.289       .  A
O408       Zr411   2.443       .  S
O409        C410   1.287       .  A
O409      Zr1234   2.428       .  S
C410        C776   1.482       .  S
Zr411      O1991   2.439   1_455  S
Zr411       O412   2.434       .  S
Zr411       O413   2.438       .  S
Zr411      O1611   2.372   1_456  S
Zr411       O441   2.374       .  S
Zr411      O2035   2.370   1_455  S
O412       H2047   0.990   1_455  S
O413       H2046   0.990       .  S
O413        H458   0.990   1_455  S
Zr414      O1997   2.440   1_455  S
Zr414      O2007   2.436       .  S
Zr414       O416   2.434       .  S
Zr414       O418   2.373       .  S
Zr414      O2009   2.371   1_455  S
Zr414      O2830   2.372   1_455  S
Zr414      O1240   2.369       .  S
O415      Zr2006   2.438       .  S
O415       H2048   0.990       .  S
O415        H459   0.990       .  S
O416       H2041   0.989       .  S
O417      Zr1605   2.373       .  S
O417      Zr2006   2.377       .  S
O417       Zr437   2.389       .  S
O418       Zr836   2.389       .  S
O418        H445   0.966       .  S
O419        C421   1.289       .  A
O419      Zr2023   2.445       .  S
O420        C421   1.287       .  A
O420       Zr438   2.428   1_545  S
C421        C701   1.494       .  S
O422        C424   1.290       .  A
O422       Zr434   2.449       .  S
O423        C424   1.289       .  A
O423      Zr1233   2.438   1_545  S
C424        C725   1.500       .  S
O425        C427   1.290       .  A
O425      Zr2026   2.449       .  S
O426        C427   1.289       .  A
C427        C737   1.488       .  S
O428        C430   1.288       .  A
O428       Zr431   2.437       .  S
O429        C430   1.285       .  A
O429       Zr835   2.420   1_545  S
C430        C761   1.470       .  S
Zr431      O2011   2.450       .  S
Zr431       O432   2.437       .  S
Zr431       O433   2.435       .  S
Zr431      O2031   2.368       .  S
Zr431       O440   2.373       .  S
Zr431      O1239   2.375   1_545  S
Zr431      O2829   2.371   1_545  S
O432       H2044   0.990       .  S
O432        H457   0.990       .  S
O433       H2045   0.990       .  S
Zr434      O2017   2.439       .  S
Zr434      O2027   2.435       .  S
Zr434       O436   2.438       .  S
Zr434      O1633   2.377       .  S
Zr434      O2036   2.371       .  S
Zr434       O442   2.369       .  S
O435      Zr2026   2.434       .  S
O435       H2043   0.990       .  S
O436       H2042   0.990       .  S
O436        H460   0.990       .  S
Zr437      O1219   2.425       .  S
Zr437       O827   2.437       .  S
Zr437       O838   2.381       .  S
Zr437      O1238   2.388       .  S
Zr438       O801   2.431   1_556  S
Zr438      O1205   2.433       .  S
Zr438       O816   2.389   1_556  S
Zr438       O439   2.388   1_565  S
Zr438      O1237   2.387       .  S
O439      Zr2023   2.368       .  S
O439      Zr1628   2.375   1_556  S
O439        H447   0.966       .  S
O440       Zr835   2.384   1_545  S
O441      Zr2819   2.373       .  S
O441      Zr1234   2.383       .  S
O442      Zr2802   2.371   1_545  S
O442      Zr1233   2.382   1_545  S
O442        H446   0.968       .  S
O443      Zr2003   2.377       .  S
O443      Zr1227   2.374       .  S
O443        H448   0.967       .  S
O444      Zr1210   2.368   1_545  S
O444      Zr2026   2.376       .  S
H449       O2008   0.990       .  S
H450       O2028   0.990       .  S
H451       O2027   0.990       .  S
H452       O2024   0.990       .  S
H453       O2025   0.990       .  S
H454       O2005   0.990       .  S
H455       O2004   0.990       .  S
H456       O2007   0.990       .  S
C461        C462   1.544       .  S
C461        C467   1.537       .  S
C461        C465   1.551       .  S
C461        C704   1.535       .  S
C462        H469   1.086       .  S
C462        C463   1.369       .  D
C463        C464   1.537       .  S
C463        C665   1.490       .  S
C464        C468   1.534       .  S
C464        C466   1.530       .  S
C464        H470   1.106       .  S
C465        H471   1.081       .  S
C465        C466   1.366       .  D
C466        C677   1.481       .  S
C467        H472   1.086       .  S
C467        C468   1.362       .  D
C468        C689   1.482       .  S
C473        C474   1.546       .  S
C473        C479   1.538       .  S
C473        C477   1.547       .  S
C473        C773   1.538       .  S
C474        H481   1.080       .  S
C474        C475   1.364       .  D
C475        C476   1.535       .  S
C475        C692   1.484       .  S
C476        C480   1.535       .  S
C476        C478   1.533       .  S
C476        H482   1.110       .  S
C477        H483   1.085       .  S
C477        C478   1.368       .  D
C478        C653   1.477       .  S
C479        H484   1.087       .  S
C479        C480   1.365       .  D
C480        C641   1.485       .  S
C485        C486   1.545       .  S
C485        C491   1.540       .  S
C485        C489   1.545       .  S
C485        C713   1.532       .  S
C486        H493   1.083       .  S
C486        C487   1.362       .  D
C487        C488   1.533       .  S
C487        C644   1.481       .  S
C488        C492   1.532       .  S
C488        C490   1.535       .  S
C488        H494   1.109       .  S
C489        H495   1.085       .  S
C489        C490   1.367       .  D
C490        C629   1.478       .  S
C491        H496   1.086       .  S
C491        C492   1.365       .  D
C492        C617   1.484       .  S
C497        C498   1.546       .  S
C497        C503   1.537       .  S
C497        C501   1.547       .  S
C497        C740   1.543       .  S
C498        H505   1.080       .  S
C498        C499   1.365       .  D
C499        C500   1.542       .  S
C499        C620   1.492       .  S
C500        C504   1.541       .  S
C500        C502   1.538       .  S
C500        H506   1.110       .  S
C501        H507   1.086       .  S
C501        C502   1.370       .  D
C502        C605   1.487       .  S
C503        H508   1.085       .  S
C503        C504   1.366       .  D
C504        C668   1.494       .  S
C509        C510   1.541       .  S
C509        C515   1.544       .  S
C509        C513   1.544       .  S
C509        C764   1.534       .  S
C510        H517   1.086       .  S
C510        C511   1.368       .  D
C511        C512   1.537       .  S
C511        C593   1.487       .  S
C512        C516   1.529       .  S
C512        C514   1.534       .  S
C512        H518   1.109       .  S
C513        H519   1.086       .  S
C513        C514   1.367       .  D
C514        C680   1.480       .  S
C515        H520   1.078       .  S
C515        C516   1.360       .  D
C516        C584   1.476       .  S
C521        C522   1.539       .  S
C521        C527   1.542       .  S
C521        C525   1.555       .  S
C521        C728   1.540       .  S
C522        H529   1.086       .  S
C522        C523   1.366       .  D
C523        C524   1.531       .  S
C523        C581   1.480       .  S
C524        C528   1.531       .  S
C524        C526   1.535       .  S
C524        H530   1.110       .  S
C525        H531   1.081       .  S
C525        C526   1.369       .  D
C526        C608   1.486       .  S
C527        H532   1.086       .  S
C527        C528   1.363       .  D
C528        C572   1.473       .  S
C533        C534   1.539       .  S
C533        C539   1.548       .  S
C533        C537   1.543       .  S
C533        C788   1.538       .  S
C534        H541   1.086       .  S
C534        C535   1.360       .  D
C535        C536   1.535       .  S
C535        C569   1.477       .  S
C536        C540   1.536       .  S
C536        C538   1.537       .  S
C536        H542   1.111       .  S
C537        H543   1.086       .  S
C537        C538   1.368       .  D
C538        C632   1.483       .  S
C539        H544   1.080       .  S
C539        C540   1.367       .  D
C540        C560   1.486       .  S
C545        C546   1.536       .  S
C545        C551   1.541       .  S
C545        C549   1.547       .  S
C545        C749   1.536       .  S
C546        H553   1.086       .  S
C546        C547   1.365       .  D
C547        C548   1.538       .  S
C547        C557   1.488       .  S
C548        C552   1.540       .  S
C548        C550   1.537       .  S
C548        H554   1.109       .  S
C549        H555   1.082       .  S
C549        C550   1.364       .  D
C550        C656   1.479       .  S
C551        H556   1.085       .  S
C551        C552   1.368       .  D
C552        C596   1.490       .  S
C557        C558   1.405       .  A
C557        C562   1.411       .  A
C558        C559   1.398       .  A
C558        H563   1.084       .  S
C559        C560   1.411       .  A
C559        O564   1.372       .  S
C560        C561   1.403       .  A
C561        C562   1.404       .  A
C561        H565   1.084       .  S
C562        O566   1.372       .  S
O564        H568   0.992       .  S
O566        H567   0.992       .  S
C569        C570   1.403       .  A
C569        C574   1.407       .  A
C570        C571   1.401       .  A
C570        H575   1.084       .  S
C571        C572   1.407       .  A
C571        O576   1.372       .  S
C572        C573   1.399       .  A
C573        C574   1.405       .  A
C573        H577   1.084       .  S
C574        O578   1.374       .  S
O576        H580   0.992       .  S
O578        H579   0.992       .  S
C581        C582   1.402       .  A
C581        C586   1.410       .  A
C582        C583   1.396       .  A
C582        H587   1.084       .  S
C583        C584   1.408       .  A
C583        O588   1.373       .  S
C584        C585   1.400       .  A
C585        C586   1.399       .  A
C585        H589   1.084       .  S
C586        O590   1.371       .  S
O588        H592   0.992       .  S
O590        H591   0.992       .  S
C593        C594   1.404       .  A
C593        C598   1.410       .  A
C594        C595   1.402       .  A
C594        H599   1.083       .  S
C595        C596   1.413       .  A
C595        O600   1.372       .  S
C596        C597   1.403       .  A
C597        C598   1.399       .  A
C597        H601   1.080       .  S
C598        O602   1.372       .  S
O600        H604   0.992       .  S
O602        H603   0.992       .  S
C605        C606   1.403       .  A
C605        C610   1.410       .  A
C606        C607   1.400       .  A
C606        H611   1.084       .  S
C607        C608   1.408       .  A
C607        O612   1.372       .  S
C608        C609   1.405       .  A
C609        C610   1.407       .  A
C609        H613   1.083       .  S
C610        O614   1.371       .  S
O612        H616   0.992       .  S
O614        H615   0.992       .  S
C617        C618   1.404       .  A
C617        C622   1.407       .  A
C618        C619   1.403       .  A
C618        H623   1.083       .  S
C619        C620   1.410       .  A
C619        O624   1.372       .  S
C620        C621   1.401       .  A
C621        C622   1.399       .  A
C621        H625   1.070       .  S
C622        O626   1.373       .  S
O624        H628   0.992       .  S
O626        H627   0.992       .  S
C629        C630   1.403       .  A
C629        C634   1.406       .  A
C630        C631   1.405       .  A
C630        H635   1.083       .  S
C631        C632   1.410       .  A
C631        O636   1.371       .  S
C632        C633   1.400       .  A
C633        C634   1.397       .  A
C633        H637   1.078       .  S
C634        O638   1.373       .  S
O636        H640   0.992       .  S
O638        H639   0.992       .  S
C641        C642   1.403       .  A
C641        C646   1.410       .  A
C642        C643   1.398       .  A
C642        H647   1.084       .  S
C643        C644   1.409       .  A
C643        O648   1.372       .  S
C644        C645   1.401       .  A
C645        C646   1.402       .  A
C645        H649   1.084       .  S
C646        O650   1.370       .  S
O648        H652   0.992       .  S
O650        H651   0.992       .  S
C653        C654   1.401       .  A
C653        C658   1.406       .  A
C654        C655   1.406       .  A
C654        H659   1.083       .  S
C655        C656   1.407       .  A
C655        O660   1.374       .  S
C656        C657   1.402       .  A
C657        C658   1.402       .  A
C657        H661   1.084       .  S
C658        O662   1.371       .  S
O660        H664   0.992       .  S
O662        H663   0.992       .  S
C665        C666   1.407       .  A
C665        C670   1.410       .  A
C666        C667   1.403       .  A
C666        H671   1.083       .  S
C667        C668   1.414       .  A
C667        O672   1.371       .  S
C668        C669   1.400       .  A
C669        C670   1.393       .  A
C669        H673   1.070       .  S
C670        O674   1.371       .  S
O672        H676   0.992       .  S
O674        H675   0.992       .  S
C677        C678   1.403       .  A
C677        C682   1.408       .  A
C678        C679   1.396       .  A
C678        H683   1.084       .  S
C679        C680   1.409       .  A
C679        O684   1.372       .  S
C680        C681   1.404       .  A
C681        C682   1.402       .  A
C681        H685   1.083       .  S
C682        O686   1.371       .  S
O684        H688   0.992       .  S
O686        H687   0.992       .  S
C689        C690   1.404       .  A
C689        C694   1.407       .  A
C690        C691   1.400       .  A
C690        H695   1.084       .  S
C691        C692   1.410       .  A
C691        O696   1.373       .  S
C692        C693   1.403       .  A
C693        C694   1.401       .  A
C693        H697   1.082       .  S
C694        O698   1.372       .  S
O696        H700   0.992       .  S
O698        H699   0.992       .  S
C701        C702   1.406       .  A
C701        C706   1.413       .  A
C702        C703   1.399       .  A
C702        H707   1.083       .  S
C703        C704   1.416       .  A
C703        O708   1.373       .  S
C704        C705   1.410       .  A
C705        C706   1.402       .  A
C705        H709   1.077       .  S
C706        O710   1.371       .  S
O708        H712   0.992       .  S
O710        H711   0.992       .  S
C713        C714   1.411       .  A
C713        C718   1.417       .  A
C714        C715   1.395       .  A
C714        H719   1.079       .  S
C715        C716   1.407       .  A
C715        O720   1.373       .  S
C716        C717   1.404       .  A
C717        C718   1.402       .  A
C717        H721   1.084       .  S
C718        O722   1.371       .  S
O720        H724   0.992       .  S
O722        H723   0.992       .  S
C725        C726   1.407       .  A
C725        C730   1.414       .  A
C726        C727   1.403       .  A
C726        H731   1.083       .  S
C727        C728   1.417       .  A
C727        O732   1.373       .  S
C728        C729   1.410       .  A
C729        C730   1.405       .  A
C729        H733   1.077       .  S
C730        O734   1.371       .  S
O732        H736   0.992       .  S
O734        H735   0.992       .  S
C737        C738   1.403       .  A
C737        C742   1.408       .  A
C738        C739   1.406       .  A
C738        H743   1.084       .  S
C739        C740   1.418       .  A
C739        O744   1.372       .  S
C740        C741   1.413       .  A
C741        C742   1.403       .  A
C741        H745   1.076       .  S
C742        O746   1.372       .  S
O744        H748   0.992       .  S
O746        H747   0.992       .  S
C749        C750   1.410       .  A
C749        C754   1.416       .  A
C750        C751   1.402       .  A
C750        H755   1.077       .  S
C751        C752   1.413       .  A
C751        O756   1.372       .  S
C752        C753   1.406       .  A
C753        C754   1.400       .  A
C753        H757   1.083       .  S
C754        O758   1.373       .  S
O756        H760   0.992       .  S
O758        H759   0.992       .  S
C761        C762   1.400       .  A
C761        C766   1.402       .  A
C762        C763   1.402       .  A
C762        H767   1.084       .  S
C763        C764   1.416       .  A
C763        O768   1.372       .  S
C764        C765   1.414       .  A
C765        C766   1.395       .  A
C765        H769   1.074       .  S
C766        O770   1.373       .  S
O768        H772   0.992       .  S
O770        H771   0.992       .  S
C773        C774   1.414       .  A
C773        C778   1.416       .  A
C774        C775   1.400       .  A
C774        H779   1.076       .  S
C775        C776   1.406       .  A
C775        O780   1.373       .  S
C776        C777   1.402       .  A
C777        C778   1.403       .  A
C777        H781   1.084       .  S
C778        O782   1.372       .  S
O780        H784   0.992       .  S
O782        H783   0.992       .  S
C785        C786   1.401       .  A
C785        C790   1.404       .  A
C786        C787   1.402       .  A
C786        H791   1.084       .  S
C787        C788   1.418       .  A
C787        O792   1.373       .  S
C788        C789   1.413       .  A
C789        C790   1.401       .  A
C789        H793   1.075       .  S
C790        O794   1.372       .  S
O792        H796   0.992       .  S
O794        H795   0.992       .  S
O797        C799   1.291       .  A
O797      Zr2401   2.451       .  S
O798        C799   1.287       .  A
O798      Zr1233   2.425       .  S
C799       C1150   1.494       .  S
O800        C802   1.290       .  A
O800       Zr812   2.450       .  S
O801        C802   1.288       .  A
C802       C1114   1.487       .  S
O803        C805   1.289       .  A
O803      Zr2404   2.444       .  S
O804        C805   1.288       .  A
O804       Zr835   2.431   1_554  S
C805       C1183   1.485       .  S
O806        C808   1.291       .  A
O806       Zr809   2.452       .  S
O807        C808   1.290       .  A
C808       C1174   1.491       .  S
Zr809      O2389   2.449   1_455  S
Zr809       O810   2.435       .  S
Zr809       O811   2.435       .  S
Zr809      O2805   2.375   1_455  S
Zr809      O1214   2.367       .  S
Zr809       O839   2.372       .  S
Zr809      O2433   2.375   1_455  S
O810       H2445   0.990       .  S
O811       H2444   0.990   1_455  S
O811        H856   0.990       .  S
Zr812      O2395   2.446   1_455  S
Zr812      O2405   2.436       .  S
Zr812       O814   2.433       .  S
Zr812       O816   2.371       .  S
Zr812      O2407   2.372   1_455  S
Zr812      O1636   2.372   1_465  S
O813      Zr2404   2.435       .  S
O813       H2446   0.990       .  S
O813        H857   0.990       .  S
O814       H2439   0.990       .  S
O815      Zr2799   2.371   1_554  S
O815      Zr2404   2.372       .  S
O815       Zr835   2.382   1_554  S
O816      Zr1207   2.376   1_554  S
O816        H843   0.966       .  S
O817        C819   1.290       .  A
O817      Zr2421   2.447       .  S
O818        C819   1.287       .  A
O818       Zr836   2.428       .  S
C819       C1099   1.496       .  S
O820        C822   1.289       .  A
O820       Zr832   2.441       .  S
O821        C822   1.288       .  A
C822       C1123   1.497       .  S
O823        C825   1.289       .  A
O823      Zr2424   2.443       .  S
O824        C825   1.287       .  A
O824      Zr1234   2.431   1_554  S
C825       C1135   1.479       .  S
O826        C828   1.287       .  A
O826       Zr829   2.435       .  S
O827        C828   1.288       .  A
C828       C1159   1.488       .  S
Zr829      O2409   2.441       .  S
Zr829       O830   2.436       .  S
Zr829       O831   2.433       .  S
Zr829      O2429   2.371       .  S
Zr829       O838   2.372       .  S
Zr829      O1635   2.371       .  S
O830       H2442   0.990       .  S
O830        H855   0.990       .  S
O831       H2443   0.990       .  S
Zr832      O2415   2.436       .  S
Zr832      O2425   2.434       .  S
Zr832       O834   2.436       .  S
Zr832      O1236   2.370   1_554  S
Zr832      O2827   2.378   1_554  S
Zr832      O2434   2.370       .  S
Zr832       O840   2.369       .  S
O833      Zr2424   2.434       .  S
O833       H2441   0.990       .  S
O834       H2440   0.990       .  S
O834        H858   0.990       .  S
Zr835      O1196   2.426       .  S
Zr835      O1239   2.389       .  S
Zr836      O1222   2.425       .  S
Zr836       O837   2.386       .  S
Zr836      O1240   2.389       .  S
O837      Zr2421   2.363       .  S
O837      Zr2822   2.377       .  S
O837        H845   0.966       .  S
O838      Zr1230   2.374       .  S
O839      Zr1625   2.369   1_565  S
O840      Zr1608   2.371       .  S
O840        H844   0.967       .  S
O841      Zr2401   2.374       .  S
O841      Zr1233   2.393       .  S
O841        H846   0.967       .  S
O842      Zr2424   2.376       .  S
O842      Zr1234   2.384   1_554  S
H847       O2406   0.990       .  S
H848       O2426   0.990       .  S
H849       O2425   0.990       .  S
H850       O2422   0.990       .  S
H851       O2423   0.990       .  S
H852       O2403   0.990       .  S
H853       O2402   0.990       .  S
H854       O2405   0.990       .  S
C859        C860   1.545       .  S
C859        C865   1.535       .  S
C859        C863   1.549       .  S
C859       C1102   1.536       .  S
C860        H867   1.086       .  S
C860        C861   1.368       .  D
C861        C862   1.537       .  S
C861       C1063   1.491       .  S
C862        C866   1.536       .  S
C862        C864   1.534       .  S
C862        H868   1.107       .  S
C863        H869   1.082       .  S
C863        C864   1.368       .  D
C864       C1075   1.481       .  S
C865        H870   1.086       .  S
C865        C866   1.363       .  D
C866       C1087   1.486       .  S
C871        C872   1.553       .  S
C871        C877   1.539       .  S
C871        C875   1.547       .  S
C871       C1171   1.547       .  S
C872        H879   1.079       .  S
C872        C873   1.369       .  D
C873        C874   1.532       .  S
C873       C1090   1.489       .  S
C874        C878   1.534       .  S
C874        C876   1.530       .  S
C874        H880   1.109       .  S
C875        H881   1.085       .  S
C875        C876   1.368       .  D
C876       C1051   1.477       .  S
C877        H882   1.086       .  S
C877        C878   1.366       .  D
C878       C1039   1.488       .  S
C883        C884   1.547       .  S
C883        C889   1.544       .  S
C883        C887   1.547       .  S
C883       C1111   1.544       .  S
C884        H891   1.080       .  S
C884        C885   1.363       .  D
C885        C886   1.534       .  S
C885       C1042   1.487       .  S
C886        C890   1.532       .  S
C886        C888   1.542       .  S
C886        H892   1.110       .  S
C887        H893   1.086       .  S
C887        C888   1.371       .  D
C888       C1027   1.490       .  S
C889        H894   1.086       .  S
C889        C890   1.366       .  D
C890       C1015   1.483       .  S
C895        C896   1.549       .  S
C895        C901   1.544       .  S
C895        C899   1.541       .  S
C895       C1138   1.541       .  S
C896        H903   1.080       .  S
C896        C897   1.361       .  D
C897        C898   1.537       .  S
C897       C1018   1.485       .  S
C898        C902   1.539       .  S
C898        C900   1.544       .  S
C898        H904   1.110       .  S
C899        H905   1.086       .  S
C899        C900   1.368       .  D
C900       C1003   1.490       .  S
C901        H906   1.086       .  S
C901        C902   1.368       .  D
C902       C1066   1.494       .  S
C907        C908   1.542       .  S
C907        C913   1.548       .  S
C907        C911   1.545       .  S
C907       C1162   1.539       .  S
C908        H915   1.086       .  S
C908        C909   1.369       .  D
C909        C910   1.537       .  S
C909        C991   1.496       .  S
C910        C914   1.531       .  S
C910        C912   1.534       .  S
C910        H916   1.107       .  S
C911        H917   1.085       .  S
C911        C912   1.368       .  D
C912       C1078   1.482       .  S
C913        H918   1.081       .  S
C913        C914   1.363       .  D
C914        C982   1.483       .  S
C919        C920   1.540       .  S
C919        C925   1.542       .  S
C919        C923   1.556       .  S
C919       C1126   1.539       .  S
C920        H927   1.086       .  S
C920        C921   1.365       .  D
C921        C922   1.532       .  S
C921        C979   1.485       .  S
C922        C926   1.530       .  S
C922        C924   1.534       .  S
C922        H928   1.108       .  S
C923        H929   1.082       .  S
C923        C924   1.370       .  D
C924       C1006   1.489       .  S
C925        H930   1.086       .  S
C925        C926   1.363       .  D
C926        C970   1.473       .  S
C931        C932   1.536       .  S
C931        C937   1.549       .  S
C931        C935   1.551       .  S
C931       C1186   1.540       .  S
C932        H939   1.087       .  S
C932        C933   1.358       .  D
C933        C934   1.531       .  S
C933        C967   1.474       .  S
C934        C938   1.532       .  S
C934        C936   1.539       .  S
C934        H940   1.111       .  S
C935        H941   1.085       .  S
C935        C936   1.374       .  D
C936       C1030   1.489       .  S
C937        H942   1.081       .  S
C937        C938   1.365       .  D
C938        C958   1.482       .  S
C943        C944   1.540       .  S
C943        C949   1.543       .  S
C943        C947   1.545       .  S
C943       C1147   1.538       .  S
C944        H951   1.086       .  S
C944        C945   1.366       .  D
C945        C946   1.536       .  S
C945        C955   1.486       .  S
C946        C950   1.543       .  S
C946        C948   1.538       .  S
C946        H952   1.108       .  S
C947        H953   1.081       .  S
C947        C948   1.362       .  D
C948       C1054   1.478       .  S
C949        H954   1.084       .  S
C949        C950   1.371       .  D
C950        C994   1.498       .  S
C955        C956   1.404       .  A
C955        C960   1.411       .  A
C956        C957   1.399       .  A
C956        H961   1.083       .  S
C957        C958   1.409       .  A
C957        O962   1.372       .  S
C958        C959   1.402       .  A
C959        C960   1.402       .  A
C959        H963   1.084       .  S
C960        O964   1.372       .  S
O962        H966   0.992       .  S
O964        H965   0.992       .  S
C967        C968   1.401       .  A
C967        C972   1.406       .  A
C968        C969   1.399       .  A
C968        H973   1.084       .  S
C969        C970   1.406       .  A
C969        O974   1.371       .  S
C970        C971   1.400       .  A
C971        C972   1.404       .  A
C971        H975   1.084       .  S
C972        O976   1.373       .  S
O974        H978   0.991       .  S
O976        H977   0.992       .  S
C979        C980   1.405       .  A
C979        C984   1.409       .  A
C980        C981   1.401       .  A
C980        H985   1.083       .  S
C981        C982   1.410       .  A
C981        O986   1.372       .  S
C982        C983   1.401       .  A
C983        C984   1.396       .  A
C983        H987   1.083       .  S
C984        O988   1.370       .  S
O986        H990   0.992       .  S
O988        H989   0.992       .  S
C991        C992   1.406       .  A
C991        C996   1.412       .  A
C992        C993   1.406       .  A
C992        H997   1.083       .  S
C993        C994   1.415       .  A
C993        O998   1.372       .  S
C994        C995   1.404       .  A
C995        C996   1.399       .  A
C995        H999   1.081       .  S
C996       O1000   1.371       .  S
O998       H1002   0.992       .  S
O1000      H1001   0.992       .  S
C1003      C1004   1.402       .  A
C1003      C1008   1.412       .  A
C1004      C1005   1.400       .  A
C1004      H1009   1.084       .  S
C1005      C1006   1.409       .  A
C1005      O1010   1.373       .  S
C1006      C1007   1.405       .  A
C1007      C1008   1.408       .  A
C1007      H1011   1.083       .  S
C1008      O1012   1.371       .  S
O1010      H1014   0.992       .  S
O1012      H1013   0.992       .  S
C1015      C1016   1.403       .  A
C1015      C1020   1.407       .  A
C1016      C1017   1.404       .  A
C1016      H1021   1.083       .  S
C1017      C1018   1.408       .  A
C1017      O1022   1.372       .  S
C1018      C1019   1.403       .  A
C1019      C1020   1.402       .  A
C1019      H1023   1.079       .  S
C1020      O1024   1.372       .  S
O1022      H1026   0.992       .  S
O1024      H1025   0.992       .  S
C1027      C1028   1.407       .  A
C1027      C1032   1.407       .  A
C1028      C1029   1.410       .  A
C1028      H1033   1.083       .  S
C1029      C1030   1.411       .  A
C1029      O1034   1.371       .  S
C1030      C1031   1.401       .  A
C1031      C1032   1.398       .  A
C1031      H1035   1.080       .  S
C1032      O1036   1.372       .  S
O1034      H1038   0.991       .  S
O1036      H1037   0.992       .  S
C1039      C1040   1.404       .  A
C1039      C1044   1.410       .  A
C1040      C1041   1.400       .  A
C1040      H1045   1.083       .  S
C1041      C1042   1.411       .  A
C1041      O1046   1.373       .  S
C1042      C1043   1.403       .  A
C1043      C1044   1.403       .  A
C1043      H1047   1.084       .  S
C1044      O1048   1.371       .  S
O1046      H1050   0.992       .  S
O1048      H1049   0.992       .  S
C1051      C1052   1.403       .  A
C1051      C1056   1.405       .  A
C1052      C1053   1.405       .  A
C1052      H1057   1.083       .  S
C1053      C1054   1.406       .  A
C1053      O1058   1.373       .  S
C1054      C1055   1.403       .  A
C1055      C1056   1.402       .  A
C1055      H1059   1.084       .  S
C1056      O1060   1.371       .  S
O1058      H1062   0.991       .  S
O1060      H1061   0.992       .  S
C1063      C1064   1.407       .  A
C1063      C1068   1.410       .  A
C1064      C1065   1.405       .  A
C1064      H1069   1.083       .  S
C1065      C1066   1.413       .  A
C1065      O1070   1.372       .  S
C1066      C1067   1.403       .  A
C1067      C1068   1.397       .  A
C1067      H1071   1.077       .  S
C1068      O1072   1.372       .  S
O1070      H1074   0.992       .  S
O1072      H1073   0.992       .  S
C1075      C1076   1.402       .  A
C1075      C1080   1.408       .  A
C1076      C1077   1.396       .  A
C1076      H1081   1.084       .  S
C1077      C1078   1.409       .  A
C1077      O1082   1.372       .  S
C1078      C1079   1.405       .  A
C1079      C1080   1.402       .  A
C1079      H1083   1.083       .  S
C1080      O1084   1.371       .  S
O1082      H1086   0.992       .  S
O1084      H1085   0.992       .  S
C1087      C1088   1.405       .  A
C1087      C1092   1.408       .  A
C1088      C1089   1.399       .  A
C1088      H1093   1.084       .  S
C1089      C1090   1.409       .  A
C1089      O1094   1.372       .  S
C1090      C1091   1.406       .  A
C1091      C1092   1.402       .  A
C1091      H1095   1.082       .  S
C1092      O1096   1.372       .  S
O1094      H1098   0.992       .  S
O1096      H1097   0.992       .  S
C1099      C1100   1.406       .  A
C1099      C1104   1.414       .  A
C1100      C1101   1.400       .  A
C1100      H1105   1.083       .  S
C1101      C1102   1.416       .  A
C1101      O1106   1.373       .  S
C1102      C1103   1.410       .  A
C1103      C1104   1.404       .  A
C1103      H1107   1.077       .  S
C1104      O1108   1.371       .  S
O1106      H1110   0.992       .  S
O1108      H1109   0.992       .  S
C1111      C1112   1.415       .  A
C1111      C1116   1.417       .  A
C1112      C1113   1.400       .  A
C1112      H1117   1.076       .  S
C1113      C1114   1.406       .  A
C1113      O1118   1.373       .  S
C1114      C1115   1.404       .  A
C1115      C1116   1.406       .  A
C1115      H1119   1.084       .  S
C1116      O1120   1.371       .  S
O1118      H1122   0.992       .  S
O1120      H1121   0.992       .  S
C1123      C1124   1.407       .  A
C1123      C1128   1.413       .  A
C1124      C1125   1.402       .  A
C1124      H1129   1.083       .  S
C1125      C1126   1.417       .  A
C1125      O1130   1.373       .  S
C1126      C1127   1.410       .  A
C1127      C1128   1.403       .  A
C1127      H1131   1.077       .  S
C1128      O1132   1.372       .  S
O1130      H1134   0.992       .  S
O1132      H1133   0.992       .  S
C1135      C1136   1.401       .  A
C1135      C1140   1.404       .  A
C1136      C1137   1.405       .  A
C1136      H1141   1.084       .  S
C1137      C1138   1.419       .  A
C1137      O1142   1.372       .  S
C1138      C1139   1.413       .  A
C1139      C1140   1.399       .  A
C1139      H1143   1.075       .  S
C1140      O1144   1.373       .  S
O1142      H1146   0.992       .  S
O1144      H1145   0.992       .  S
C1147      C1148   1.412       .  A
C1147      C1152   1.415       .  A
C1148      C1149   1.404       .  A
C1148      H1153   1.076       .  S
C1149      C1150   1.413       .  A
C1149      O1154   1.372       .  S
C1150      C1151   1.405       .  A
C1151      C1152   1.400       .  A
C1151      H1155   1.083       .  S
C1152      O1156   1.373       .  S
O1154      H1158   0.992       .  S
O1156      H1157   0.992       .  S
C1159      C1160   1.404       .  A
C1159      C1164   1.410       .  A
C1160      C1161   1.406       .  A
C1160      H1165   1.084       .  S
C1161      C1162   1.419       .  A
C1161      O1166   1.371       .  S
C1162      C1163   1.410       .  A
C1163      C1164   1.397       .  A
C1163      H1167   1.078       .  S
C1164      O1168   1.373       .  S
O1166      H1170   0.992       .  S
O1168      H1169   0.992       .  S
C1171      C1172   1.413       .  A
C1171      C1176   1.419       .  A
C1172      C1173   1.403       .  A
C1172      H1177   1.075       .  S
C1173      C1174   1.407       .  A
C1173      O1178   1.373       .  S
C1174      C1175   1.404       .  A
C1175      C1176   1.409       .  A
C1175      H1179   1.083       .  S
C1176      O1180   1.372       .  S
O1178      H1182   0.992       .  S
O1180      H1181   0.992       .  S
C1183      C1184   1.404       .  A
C1183      C1188   1.407       .  A
C1184      C1185   1.406       .  A
C1184      H1189   1.084       .  S
C1185      C1186   1.418       .  A
C1185      O1190   1.372       .  S
C1186      C1187   1.413       .  A
C1187      C1188   1.400       .  A
C1187      H1191   1.076       .  S
C1188      O1192   1.372       .  S
O1190      H1194   0.992       .  S
O1192      H1193   0.992       .  S
O1195      C1197   1.290       .  A
O1195     Zr2799   2.446       .  S
O1196      C1197   1.287       .  A
C1197      C1548   1.493       .  S
O1198      C1200   1.288       .  A
O1198     Zr1210   2.444       .  S
O1199      C1200   1.286       .  A
C1200      C1512   1.492       .  S
O1201      C1203   1.290       .  A
O1201     Zr2802   2.446       .  S
O1202      C1203   1.288       .  A
O1202     Zr1233   2.434       .  S
C1203      C1581   1.489       .  S
O1204      C1206   1.288       .  A
O1204     Zr1207   2.436       .  S
O1205      C1206   1.288       .  A
C1206      C1572   1.482       .  S
Zr1207     O2787   2.444   1_455  S
Zr1207     O1208   2.435       .  S
Zr1207     O1209   2.437       .  S
Zr1207     O2407   2.372   1_456  S
Zr1207     O1237   2.373       .  S
Zr1207     O2831   2.367   1_455  S
O1208      H2843   0.990   1_455  S
O1209      H2842   0.990   1_455  S
O1209      H1254   0.990   1_455  S
Zr1210     O2793   2.434   1_455  S
Zr1210     O2803   2.434       .  S
Zr1210     O1212   2.436       .  S
Zr1210     O1214   2.369       .  S
Zr1210     O2805   2.375   1_455  S
Zr1210     O2034   2.371   1_465  S
O1211     Zr2802   2.435       .  S
O1211      H2844   0.990       .  S
O1211      H1255   0.990       .  S
O1212      H2837   0.990   1_455  S
O1213     Zr2401   2.373       .  S
O1213     Zr2802   2.369       .  S
O1213     Zr1233   2.384       .  S
O1214      H1241   0.966       .  S
O1215      C1217   1.289       .  A
O1215     Zr2819   2.444       .  S
O1216      C1217   1.287       .  A
O1216     Zr1234   2.427       .  S
C1217      C1497   1.493       .  S
O1218      C1220   1.287       .  A
O1218     Zr1230   2.430       .  S
O1219      C1220   1.287       .  A
C1220      C1521   1.487       .  S
O1221      C1223   1.289       .  A
O1221     Zr2822   2.443       .  S
O1222      C1223   1.287       .  A
C1223      C1533   1.480       .  S
O1224      C1226   1.287       .  A
O1224     Zr1227   2.433       .  S
O1225      C1226   1.287       .  A
C1226      C1557   1.483       .  S
Zr1227     O2807   2.449       .  S
Zr1227     O1228   2.437       .  S
Zr1227     O1229   2.434       .  S
Zr1227     O2827   2.368       .  S
Zr1227     O1236   2.372       .  S
Zr1227     O2033   2.370       .  S
O1228      H2840   0.991       .  S
O1228      H1253   0.990       .  S
O1229      H2841   0.990       .  S
Zr1230     O2813   2.439       .  S
Zr1230     O2823   2.434       .  S
Zr1230     O1232   2.437       .  S
Zr1230     O2429   2.369       .  S
Zr1230     O2832   2.368       .  S
Zr1230     O1238   2.369       .  S
O1231     Zr2822   2.433       .  S
O1231      H2839   0.990       .  S
O1232      H2838   0.990       .  S
O1232      H1256   0.990       .  S
Zr1234     O1235   2.383       .  S
O1235     Zr2819   2.367       .  S
O1235     Zr2424   2.365   1_556  S
O1235      H1243   0.966       .  S
O1237     Zr2023   2.374   1_565  S
O1238     Zr2006   2.370       .  S
O1238      H1242   0.967       .  S
O1239     Zr2799   2.367       .  S
O1239      H1244   0.966       .  S
O1240     Zr2822   2.375       .  S
H1245      O2804   0.990       .  S
H1246      O2824   0.990       .  S
H1247      O2823   0.990       .  S
H1248      O2820   0.990   1_655  S
H1249      O2821   0.990       .  S
H1250      O2801   0.990       .  S
H1251      O2800   0.990       .  S
H1252      O2803   0.990       .  S
C1257      C1258   1.546       .  S
C1257      C1263   1.537       .  S
C1257      C1261   1.547       .  S
C1257      C1500   1.534       .  S
C1258      H1265   1.086       .  S
C1258      C1259   1.368       .  D
C1259      C1260   1.535       .  S
C1259      C1461   1.486       .  S
C1260      C1264   1.534       .  S
C1260      C1262   1.529       .  S
C1260      H1266   1.107       .  S
C1261      H1267   1.083       .  S
C1261      C1262   1.364       .  D
C1262      C1473   1.477       .  S
C1263      H1268   1.086       .  S
C1263      C1264   1.366       .  D
C1264      C1485   1.489       .  S
C1269      C1270   1.548       .  S
C1269      C1275   1.537       .  S
C1269      C1273   1.542       .  S
C1269      C1569   1.535       .  S
C1270      H1277   1.081       .  S
C1270      C1271   1.367       .  D
C1271      C1272   1.536       .  S
C1271      C1488   1.490       .  S
C1272      C1276   1.537       .  S
C1272      C1274   1.533       .  S
C1272      H1278   1.109       .  S
C1273      H1279   1.085       .  S
C1273      C1274   1.364       .  D
C1274      C1449   1.469       .  S
C1275      H1280   1.086       .  S
C1275      C1276   1.365       .  D
C1276      C1437   1.486       .  S
C1281      C1282   1.543       .  S
C1281      C1287   1.545       .  S
C1281      C1285   1.550       .  S
C1281      C1509   1.538       .  S
C1282      H1289   1.086       .  S
C1282      C1283   1.363       .  D
C1283      C1284   1.533       .  S
C1283      C1440   1.481       .  S
C1284      C1288   1.531       .  S
C1284      C1286   1.533       .  S
C1284      H1290   1.110       .  S
C1285      H1291   1.078       .  S
C1285      C1286   1.367       .  D
C1286      C1425   1.479       .  S
C1287      H1292   1.086       .  S
C1287      C1288   1.365       .  D
C1288      C1413   1.483       .  S
C1293      C1294   1.548       .  S
C1293      C1299   1.536       .  S
C1293      C1297   1.543       .  S
C1293      C1536   1.534       .  S
C1294      H1301   1.082       .  S
C1294      C1295   1.362       .  D
C1295      C1296   1.538       .  S
C1295      C1416   1.487       .  S
C1296      C1300   1.539       .  S
C1296      C1298   1.540       .  S
C1296      H1302   1.110       .  S
C1297      H1303   1.085       .  S
C1297      C1298   1.369       .  D
C1298      C1401   1.483       .  S
C1299      H1304   1.086       .  S
C1299      C1300   1.364       .  D
C1300      C1464   1.488       .  S
C1305      C1306   1.538       .  S
C1305      C1311   1.546       .  S
C1305      C1309   1.546       .  S
C1305      C1560   1.533       .  S
C1306      H1313   1.086       .  S
C1306      C1307   1.365       .  D
C1307      C1308   1.529       .  S
C1307      C1389   1.481       .  S
C1308      C1312   1.530       .  S
C1308      C1310   1.533       .  S
C1308      H1314   1.110       .  S
C1309      H1315   1.085       .  S
C1309      C1310   1.369       .  D
C1310      C1476   1.477       .  S
C1311      H1316   1.082       .  S
C1311      C1312   1.361       .  D
C1312      C1380   1.477       .  S
C1317      C1318   1.539       .  S
C1317      C1323   1.541       .  S
C1317      C1321   1.550       .  S
C1317      C1524   1.531       .  S
C1318      H1325   1.086       .  S
C1318      C1319   1.365       .  D
C1319      C1320   1.534       .  S
C1319      C1377   1.482       .  S
C1320      C1324   1.533       .  S
C1320      C1322   1.534       .  S
C1320      H1326   1.109       .  S
C1321      H1327   1.081       .  S
C1321      C1322   1.365       .  D
C1322      C1404   1.480       .  S
C1323      H1328   1.086       .  S
C1323      C1324   1.362       .  D
C1324      C1368   1.476       .  S
C1329      C1330   1.537       .  S
C1329      C1335   1.550       .  S
C1329      C1333   1.548       .  S
C1329      C1584   1.540       .  S
C1330      H1337   1.086       .  S
C1330      C1331   1.359       .  D
C1331      C1332   1.534       .  S
C1331      C1365   1.478       .  S
C1332      C1336   1.535       .  S
C1332      C1334   1.536       .  S
C1332      H1338   1.111       .  S
C1333      H1339   1.085       .  S
C1333      C1334   1.372       .  D
C1334      C1428   1.484       .  S
C1335      H1340   1.081       .  S
C1335      C1336   1.367       .  D
C1336      C1356   1.489       .  S
C1341      C1342   1.541       .  S
C1341      C1347   1.541       .  S
C1341      C1345   1.545       .  S
C1341      C1545   1.537       .  S
C1342      H1349   1.086       .  S
C1342      C1343   1.367       .  D
C1343      C1344   1.538       .  S
C1343      C1353   1.489       .  S
C1344      C1348   1.535       .  S
C1344      C1346   1.534       .  S
C1344      H1350   1.110       .  S
C1345      H1351   1.081       .  S
C1345      C1346   1.361       .  D
C1346      C1452   1.472       .  S
C1347      H1352   1.086       .  S
C1347      C1348   1.368       .  D
C1348      C1392   1.485       .  S
C1353      C1354   1.405       .  A
C1353      C1358   1.411       .  A
C1354      C1355   1.400       .  A
C1354      H1359   1.084       .  S
C1355      C1356   1.413       .  A
C1355      O1360   1.372       .  S
C1356      C1357   1.403       .  A
C1357      C1358   1.402       .  A
C1357      H1361   1.083       .  S
C1358      O1362   1.372       .  S
O1360      H1364   0.992       .  S
O1362      H1363   0.992       .  S
C1365      C1366   1.402       .  A
C1365      C1370   1.407       .  A
C1366      C1367   1.401       .  A
C1366      H1371   1.084       .  S
C1367      C1368   1.406       .  A
C1367      O1372   1.371       .  S
C1368      C1369   1.401       .  A
C1369      C1370   1.406       .  A
C1369      H1373   1.084       .  S
C1370      O1374   1.373       .  S
O1372      H1376   0.992       .  S
O1374      H1375   0.992       .  S
C1377      C1378   1.405       .  A
C1377      C1382   1.409       .  A
C1378      C1379   1.399       .  A
C1378      H1383   1.083       .  S
C1379      C1380   1.408       .  A
C1379      O1384   1.373       .  S
C1380      C1381   1.401       .  A
C1381      C1382   1.397       .  A
C1381      H1385   1.084       .  S
C1382      O1386   1.371       .  S
O1384      H1388   0.992       .  S
O1386      H1387   0.992       .  S
C1389      C1390   1.402       .  A
C1389      C1394   1.410       .  A
C1390      C1391   1.400       .  A
C1390      H1395   1.084       .  S
C1391      C1392   1.409       .  A
C1391      O1396   1.372       .  S
C1392      C1393   1.403       .  A
C1393      C1394   1.400       .  A
C1393      H1397   1.081       .  S
C1394      O1398   1.372       .  S
O1396      H1400   0.992       .  S
O1398      H1399   0.992       .  S
C1401      C1402   1.403       .  A
C1401      C1406   1.409       .  A
C1402      C1403   1.398       .  A
C1402      H1407   1.084       .  S
C1403      C1404   1.407       .  A
C1403      O1408   1.373       .  S
C1404      C1405   1.403       .  A
C1405      C1406   1.403       .  A
C1405      H1409   1.084       .  S
C1406      O1410   1.371       .  S
O1408      H1412   0.992       .  S
O1410      H1411   0.992       .  S
C1413      C1414   1.403       .  A
C1413      C1418   1.407       .  A
C1414      C1415   1.404       .  A
C1414      H1419   1.083       .  S
C1415      C1416   1.408       .  A
C1415      O1420   1.372       .  S
C1416      C1417   1.403       .  A
C1417      C1418   1.403       .  A
C1417      H1421   1.078       .  S
C1418      O1422   1.372       .  S
O1420      H1424   0.992       .  S
O1422      H1423   0.992       .  S
C1425      C1426   1.404       .  A
C1425      C1430   1.405       .  A
C1426      C1427   1.405       .  A
C1426      H1431   1.084       .  S
C1427      C1428   1.410       .  A
C1427      O1432   1.372       .  S
C1428      C1429   1.402       .  A
C1429      C1430   1.397       .  A
C1429      H1433   1.081       .  S
C1430      O1434   1.372       .  S
O1432      H1436   0.992       .  S
O1434      H1435   0.992       .  S
C1437      C1438   1.405       .  A
C1437      C1442   1.410       .  A
C1438      C1439   1.400       .  A
C1438      H1443   1.083       .  S
C1439      C1440   1.408       .  A
C1439      O1444   1.372       .  S
C1440      C1441   1.402       .  A
C1441      C1442   1.401       .  A
C1441      H1445   1.084       .  S
C1442      O1446   1.371       .  S
O1444      H1448   0.992       .  S
O1446      H1447   0.992       .  S
C1449      C1450   1.400       .  A
C1449      C1454   1.405       .  A
C1450      C1451   1.403       .  A
C1450      H1455   1.084       .  S
C1451      C1452   1.405       .  A
C1451      O1456   1.374       .  S
C1452      C1453   1.402       .  A
C1453      C1454   1.399       .  A
C1453      H1457   1.084       .  S
C1454      O1458   1.371       .  S
O1456      H1460   0.992       .  S
O1458      H1459   0.992       .  S
C1461      C1462   1.406       .  A
C1461      C1466   1.409       .  A
C1462      C1463   1.404       .  A
C1462      H1467   1.083       .  S
C1463      C1464   1.414       .  A
C1463      O1468   1.372       .  S
C1464      C1465   1.399       .  A
C1465      C1466   1.390       .  A
C1465      H1469   1.076       .  S
C1466      O1470   1.371       .  S
O1468      H1472   0.992       .  S
O1470      H1471   0.992       .  S
C1473      C1474   1.402       .  A
C1473      C1478   1.407       .  A
C1474      C1475   1.394       .  A
C1474      H1479   1.084       .  S
C1475      C1476   1.409       .  A
C1475      O1480   1.373       .  S
C1476      C1477   1.404       .  A
C1477      C1478   1.401       .  A
C1477      H1481   1.083       .  S
C1478      O1482   1.371       .  S
O1480      H1484   0.992       .  S
O1482      H1483   0.992       .  S
C1485      C1486   1.404       .  A
C1485      C1490   1.411       .  A
C1486      C1487   1.400       .  A
C1486      H1491   1.083       .  S
C1487      C1488   1.410       .  A
C1487      O1492   1.372       .  S
C1488      C1489   1.406       .  A
C1489      C1490   1.405       .  A
C1489      H1493   1.083       .  S
C1490      O1494   1.372       .  S
O1492      H1496   0.992       .  S
O1494      H1495   0.992       .  S
C1497      C1498   1.406       .  A
C1497      C1502   1.413       .  A
C1498      C1499   1.399       .  A
C1498      H1503   1.083       .  S
C1499      C1500   1.415       .  A
C1499      O1504   1.372       .  S
C1500      C1501   1.410       .  A
C1501      C1502   1.402       .  A
C1501      H1505   1.079       .  S
C1502      O1506   1.372       .  S
O1504      H1508   0.992       .  S
O1506      H1507   0.992       .  S
C1509      C1510   1.409       .  A
C1509      C1514   1.420       .  A
C1510      C1511   1.395       .  A
C1510      H1515   1.084       .  S
C1511      C1512   1.411       .  A
C1511      O1516   1.372       .  S
C1512      C1513   1.407       .  A
C1513      C1514   1.404       .  A
C1513      H1517   1.083       .  S
C1514      O1518   1.367       .  S
O1516      H1520   0.992       .  S
O1518      H1519   0.992       .  S
C1521      C1522   1.405       .  A
C1521      C1526   1.410       .  A
C1522      C1523   1.397       .  A
C1522      H1527   1.083       .  S
C1523      C1524   1.415       .  A
C1523      O1528   1.373       .  S
C1524      C1525   1.411       .  A
C1525      C1526   1.401       .  A
C1525      H1529   1.076       .  S
C1526      O1530   1.372       .  S
O1528      H1532   0.992       .  S
O1530      H1531   0.992       .  S
C1533      C1534   1.402       .  A
C1533      C1538   1.406       .  A
C1534      C1535   1.404       .  A
C1534      H1539   1.084       .  S
C1535      C1536   1.418       .  A
C1535      O1540   1.372       .  S
C1536      C1537   1.411       .  A
C1537      C1538   1.396       .  A
C1537      H1541   1.076       .  S
C1538      O1542   1.373       .  S
O1540      H1544   0.992       .  S
O1542      H1543   0.992       .  S
C1545      C1546   1.412       .  A
C1545      C1550   1.415       .  A
C1546      C1547   1.403       .  A
C1546      H1551   1.076       .  S
C1547      C1548   1.412       .  A
C1547      O1552   1.372       .  S
C1548      C1549   1.406       .  A
C1549      C1550   1.400       .  A
C1549      H1553   1.083       .  S
C1550      O1554   1.373       .  S
O1552      H1556   0.992       .  S
O1554      H1555   0.992       .  S
C1557      C1558   1.405       .  A
C1557      C1562   1.408       .  A
C1558      C1559   1.404       .  A
C1558      H1563   1.084       .  S
C1559      C1560   1.417       .  A
C1559      O1564   1.371       .  S
C1560      C1561   1.410       .  A
C1561      C1562   1.394       .  A
C1561      H1565   1.079       .  S
C1562      O1566   1.373       .  S
O1564      H1568   0.992       .  S
O1566      H1567   0.992       .  S
C1569      C1570   1.412       .  A
C1569      C1574   1.417       .  A
C1570      C1571   1.399       .  A
C1570      H1575   1.077       .  S
C1571      C1572   1.408       .  A
C1571      O1576   1.373       .  S
C1572      C1573   1.402       .  A
C1573      C1574   1.403       .  A
C1573      H1577   1.083       .  S
C1574      O1578   1.372       .  S
O1576      H1580   0.992       .  S
O1578      H1579   0.992       .  S
C1581      C1582   1.405       .  A
C1581      C1586   1.408       .  A
C1582      C1583   1.407       .  A
C1582      H1587   1.084       .  S
C1583      C1584   1.419       .  A
C1583      O1588   1.371       .  S
C1584      C1585   1.412       .  A
C1585      C1586   1.399       .  A
C1585      H1589   1.077       .  S
C1586      O1590   1.373       .  S
O1588      H1592   0.992       .  S
O1590      H1591   0.992       .  S
O1593      C1595   1.291       .  A
O1594      C1595   1.287       .  A
O1594     Zr2029   2.427       .  S
C1595      C1946   1.496       .  S
O1596      C1598   1.288       .  A
O1596     Zr1608   2.437       .  S
O1597      C1598   1.286       .  A
O1597     Zr2826   2.421   1_554  S
C1598      C1910   1.480       .  S
O1599      C1601   1.290       .  A
O1600      C1601   1.289       .  A
O1600     Zr1631   2.433   1_554  S
C1601      C1979   1.492       .  S
O1602      C1604   1.291       .  A
O1602     Zr1605   2.452       .  S
O1603      C1604   1.288       .  A
O1603     Zr2428   2.431       .  S
C1604      C1970   1.488       .  S
Zr1605     O1606   2.436       .  S
Zr1605     O1607   2.436       .  S
Zr1605     O2010   2.373       .  S
Zr1605     O1635   2.374       .  S
O1607      H1652   0.990       .  S
Zr1608     O1610   2.434       .  S
Zr1608     O1612   2.370       .  S
Zr1608     O2434   2.374       .  S
O1609      H1653   0.990       .  S
O1611     Zr1631   2.385   1_554  S
O1612     Zr2003   2.366   1_554  S
O1612     Zr2826   2.385   1_554  S
O1612      H1639   0.966       .  S
O1613      C1615   1.290       .  A
O1614      C1615   1.288       .  A
O1614     Zr1632   2.435   1_545  S
C1615      C1895   1.498       .  S
O1616      C1618   1.291       .  A
O1616     Zr1628   2.453   1_655  S
O1617      C1618   1.285       .  A
O1617     Zr2427   2.421   1_544  S
C1618      C1919   1.494       .  S
O1619      C1621   1.288       .  A
O1620      C1621   1.290       .  A
O1620     Zr2030   2.441   1_544  S
C1621      C1931   1.491       .  S
O1622      C1624   1.289       .  A
O1622     Zr1625   2.444   1_655  S
O1623      C1624   1.288       .  A
O1623     Zr2825   2.433   1_545  S
C1624      C1955   1.482       .  S
Zr1625     O1626   2.436       .  S
Zr1625     O1627   2.434       .  S
Zr1625     O1634   2.373   1_455  S
Zr1625     O2433   2.368   1_445  S
O1626      H1651   0.990       .  S
Zr1628     O1630   2.437       .  S
Zr1628     O2032   2.366   1_454  S
Zr1628     O1636   2.368   1_455  S
O1630      H1654   0.990   1_455  S
Zr1631     O1992   2.437       .  S
Zr1631     O2413   2.429   1_556  S
Zr1631     O2817   2.437       .  S
Zr1631     O2828   2.381       .  S
Zr1631     O2432   2.389   1_556  S
Zr1631     O2035   2.386       .  S
Zr1632     O2791   2.423       .  S
Zr1632     O2399   2.434       .  S
Zr1632     O2018   2.431   1_565  S
Zr1632     O2806   2.390       .  S
Zr1632     O1633   2.388   1_565  S
Zr1632     O2431   2.382       .  S
Zr1632     O2036   2.386   1_565  S
O1633      H1641   0.966       .  S
O1634     Zr2026   2.372   1_655  S
O1634     Zr2825   2.384   1_545  S
O1635     Zr2428   2.382       .  S
O1636     Zr2427   2.383   1_544  S
O1636      H1640   0.967       .  S
O1637     Zr2421   2.372   1_655  S
O1637     Zr2029   2.388       .  S
O1637      H1642   0.967       .  S
O1638     Zr2404   2.370   1_545  S
O1638     Zr2030   2.383   1_544  S
C1655      C1656   1.545       .  S
C1655      C1661   1.540       .  S
C1655      C1659   1.552       .  S
C1655      C1898   1.539       .  S
C1656      H1663   1.086       .  S
C1656      C1657   1.369       .  D
C1657      C1658   1.535       .  S
C1657      C1859   1.488       .  S
C1658      C1662   1.532       .  S
C1658      C1660   1.532       .  S
C1658      H1664   1.108       .  S
C1659      H1665   1.082       .  S
C1659      C1660   1.369       .  D
C1660      C1871   1.484       .  S
C1661      H1666   1.086       .  S
C1661      C1662   1.362       .  D
C1662      C1883   1.483       .  S
C1667      C1668   1.552       .  S
C1667      C1673   1.540       .  S
C1667      C1671   1.543       .  S
C1667      C1967   1.543       .  S
C1668      H1675   1.080       .  S
C1668      C1669   1.366       .  D
C1669      C1670   1.532       .  S
C1669      C1886   1.487       .  S
C1670      C1674   1.538       .  S
C1670      C1672   1.531       .  S
C1670      H1676   1.109       .  S
C1671      H1677   1.085       .  S
C1671      C1672   1.365       .  D
C1672      C1847   1.471       .  S
C1673      H1678   1.086       .  S
C1673      C1674   1.369       .  D
C1674      C1835   1.491       .  S
C1679      C1680   1.543       .  S
C1679      C1685   1.543       .  S
C1679      C1683   1.540       .  S
C1679      C1907   1.533       .  S
C1680      H1687   1.083       .  S
C1680      C1681   1.361       .  D
C1681      C1682   1.537       .  S
C1681      C1838   1.487       .  S
C1682      C1686   1.535       .  S
C1682      C1684   1.543       .  S
C1682      H1688   1.110       .  S
C1683      H1689   1.085       .  S
C1683      C1684   1.366       .  D
C1684      C1823   1.481       .  S
C1685      H1690   1.086       .  S
C1685      C1686   1.365       .  D
C1686      C1811   1.487       .  S
C1691      C1692   1.548       .  S
C1691      C1697   1.536       .  S
C1691      C1695   1.547       .  S
C1691      C1934   1.541       .  S
C1692      H1699   1.083       .  S
C1692      C1693   1.363       .  D
C1693      C1694   1.540       .  S
C1693      C1814   1.490       .  S
C1694      C1698   1.542       .  S
C1694      C1696   1.545       .  S
C1694      H1700   1.110       .  S
C1695      H1701   1.084       .  S
C1695      C1696   1.372       .  D
C1696      C1799   1.494       .  S
C1697      H1702   1.086       .  S
C1697      C1698   1.365       .  D
C1698      C1862   1.492       .  S
C1703      C1704   1.540       .  S
C1703      C1709   1.550       .  S
C1703      C1707   1.541       .  S
C1703      C1958   1.542       .  S
C1704      H1711   1.085       .  S
C1704      C1705   1.370       .  D
C1705      C1706   1.540       .  S
C1705      C1787   1.494       .  S
C1706      C1710   1.531       .  S
C1706      C1708   1.537       .  S
C1706      H1712   1.108       .  S
C1707      H1713   1.086       .  S
C1707      C1708   1.367       .  D
C1708      C1874   1.482       .  S
C1709      H1714   1.079       .  S
C1709      C1710   1.363       .  D
C1710      C1778   1.486       .  S
C1715      C1716   1.541       .  S
C1715      C1721   1.539       .  S
C1715      C1719   1.557       .  S
C1715      C1922   1.538       .  S
C1716      H1723   1.086       .  S
C1716      C1717   1.364       .  D
C1717      C1718   1.535       .  S
C1717      C1775   1.487       .  S
C1718      C1722   1.531       .  S
C1718      C1720   1.538       .  S
C1718      H1724   1.109       .  S
C1719      H1725   1.082       .  S
C1719      C1720   1.374       .  D
C1720      C1802   1.494       .  S
C1721      H1726   1.086       .  S
C1721      C1722   1.361       .  D
C1722      C1766   1.472       .  S
C1727      C1728   1.535       .  S
C1727      C1733   1.549       .  S
C1727      C1731   1.547       .  S
C1727      C1982   1.540       .  S
C1728      H1735   1.087       .  S
C1728      C1729   1.359       .  D
C1729      C1730   1.536       .  S
C1729      C1763   1.477       .  S
C1730      C1734   1.538       .  S
C1730      C1732   1.538       .  S
C1730      H1736   1.110       .  S
C1731      H1737   1.084       .  S
C1731      C1732   1.371       .  D
C1732      C1826   1.486       .  S
C1733      H1738   1.084       .  S
C1733      C1734   1.370       .  D
C1734      C1754   1.494       .  S
C1739      C1740   1.541       .  S
C1739      C1745   1.542       .  S
C1739      C1743   1.544       .  S
C1739      C1943   1.539       .  S
C1740      H1747   1.086       .  S
C1740      C1741   1.367       .  D
C1741      C1742   1.539       .  S
C1741      C1751   1.496       .  S
C1742      C1746   1.542       .  S
C1742      C1744   1.536       .  S
C1742      H1748   1.107       .  S
C1743      H1749   1.082       .  S
C1743      C1744   1.364       .  D
C1744      C1850   1.474       .  S
C1745      H1750   1.083       .  S
C1745      C1746   1.371       .  D
C1746      C1790   1.499       .  S
C1751      C1752   1.406       .  A
C1751      C1756   1.413       .  A
C1752      C1753   1.402       .  A
C1752      H1757   1.083       .  S
C1753      C1754   1.412       .  A
C1753      O1758   1.372       .  S
C1754      C1755   1.404       .  A
C1755      C1756   1.407       .  A
C1755      H1759   1.084       .  S
C1756      O1760   1.372       .  S
O1758      H1762   0.992       .  S
O1760      H1761   0.992       .  S
C1763      C1764   1.402       .  A
C1763      C1768   1.408       .  A
C1764      C1765   1.400       .  A
C1764      H1769   1.084       .  S
C1765      C1766   1.405       .  A
C1765      O1770   1.371       .  S
C1766      C1767   1.399       .  A
C1767      C1768   1.405       .  A
C1767      H1771   1.084       .  S
C1768      O1772   1.375       .  S
O1770      H1774   0.992       .  S
O1772      H1773   0.992       .  S
C1775      C1776   1.404       .  A
C1775      C1780   1.410       .  A
C1776      C1777   1.399       .  A
C1776      H1781   1.083       .  S
C1777      C1778   1.409       .  A
C1777      O1782   1.372       .  S
C1778      C1779   1.404       .  A
C1779      C1780   1.404       .  A
C1779      H1783   1.084       .  S
C1780      O1784   1.371       .  S
O1782      H1786   0.992       .  S
O1784      H1785   0.992       .  S
C1787      C1788   1.405       .  A
C1787      C1792   1.411       .  A
C1788      C1789   1.402       .  A
C1788      H1793   1.083       .  S
C1789      C1790   1.414       .  A
C1789      O1794   1.371       .  S
C1790      C1791   1.406       .  A
C1791      C1792   1.400       .  A
C1791      H1795   1.079       .  S
C1792      O1796   1.371       .  S
O1794      H1798   0.992       .  S
O1796      H1797   0.992       .  S
C1799      C1800   1.403       .  A
C1799      C1804   1.413       .  A
C1800      C1801   1.401       .  A
C1800      H1805   1.084       .  S
C1801      C1802   1.410       .  A
C1801      O1806   1.372       .  S
C1802      C1803   1.406       .  A
C1803      C1804   1.410       .  A
C1803      H1807   1.083       .  S
C1804      O1808   1.371       .  S
O1806      H1810   0.992       .  S
O1808      H1809   0.992       .  S
C1811      C1812   1.404       .  A
C1811      C1816   1.407       .  A
C1812      C1813   1.406       .  A
C1812      H1817   1.083       .  S
C1813      C1814   1.410       .  A
C1813      O1818   1.371       .  S
C1814      C1815   1.403       .  A
C1815      C1816   1.403       .  A
C1815      H1819   1.078       .  S
C1816      O1820   1.372       .  S
O1818      H1822   0.992       .  S
O1820      H1821   0.992       .  S
C1823      C1824   1.405       .  A
C1823      C1828   1.405       .  A
C1824      C1825   1.405       .  A
C1824      H1829   1.083       .  S
C1825      C1826   1.411       .  A
C1825      O1830   1.372       .  S
C1826      C1827   1.402       .  A
C1827      C1828   1.396       .  A
C1827      H1831   1.078       .  S
C1828      O1832   1.373       .  S
O1830      H1834   0.992       .  S
O1832      H1833   0.992       .  S
C1835      C1836   1.404       .  A
C1835      C1840   1.412       .  A
C1836      C1837   1.400       .  A
C1836      H1841   1.083       .  S
C1837      C1838   1.411       .  A
C1837      O1842   1.373       .  S
C1838      C1839   1.402       .  A
C1839      C1840   1.404       .  A
C1839      H1843   1.084       .  S
C1840      O1844   1.372       .  S
O1842      H1846   0.992       .  S
O1844      H1845   0.992       .  S
C1847      C1848   1.400       .  A
C1847      C1852   1.405       .  A
C1848      C1849   1.404       .  A
C1848      H1853   1.083       .  S
C1849      C1850   1.407       .  A
C1849      O1854   1.375       .  S
C1850      C1851   1.401       .  A
C1851      C1852   1.399       .  A
C1851      H1855   1.084       .  S
C1852      O1856   1.371       .  S
O1854      H1858   0.992       .  S
O1856      H1857   0.992       .  S
C1859      C1860   1.406       .  A
C1859      C1864   1.409       .  A
C1860      C1861   1.404       .  A
C1860      H1865   1.083       .  S
C1861      C1862   1.415       .  A
C1861      O1866   1.372       .  S
C1862      C1863   1.401       .  A
C1863      C1864   1.395       .  A
C1863      H1867   1.077       .  S
C1864      O1868   1.371       .  S
O1866      H1870   0.992       .  S
O1868      H1869   0.992       .  S
C1871      C1872   1.404       .  A
C1871      C1876   1.409       .  A
C1872      C1873   1.396       .  A
C1872      H1877   1.084       .  S
C1873      C1874   1.408       .  A
C1873      O1878   1.372       .  S
C1874      C1875   1.405       .  A
C1875      C1876   1.402       .  A
C1875      H1879   1.083       .  S
C1876      O1880   1.371       .  S
O1878      H1882   0.992       .  S
O1880      H1881   0.992       .  S
C1883      C1884   1.404       .  A
C1883      C1888   1.407       .  A
C1884      C1885   1.402       .  A
C1884      H1889   1.084       .  S
C1885      C1886   1.409       .  A
C1885      O1890   1.372       .  S
C1886      C1887   1.405       .  A
C1887      C1888   1.402       .  A
C1887      H1891   1.081       .  S
C1888      O1892   1.372       .  S
O1890      H1894   0.992       .  S
O1892      H1893   0.992       .  S
C1895      C1896   1.406       .  A
C1895      C1900   1.414       .  A
C1896      C1897   1.400       .  A
C1896      H1901   1.083       .  S
C1897      C1898   1.416       .  A
C1897      O1902   1.373       .  S
C1898      C1899   1.411       .  A
C1899      C1900   1.406       .  A
C1899      H1903   1.077       .  S
C1900      O1904   1.371       .  S
O1902      H1906   0.992       .  S
O1904      H1905   0.992       .  S
C1907      C1908   1.411       .  A
C1907      C1912   1.417       .  A
C1908      C1909   1.394       .  A
C1908      H1913   1.079       .  S
C1909      C1910   1.406       .  A
C1909      O1914   1.373       .  S
C1910      C1911   1.404       .  A
C1911      C1912   1.402       .  A
C1911      H1915   1.084       .  S
C1912      O1916   1.371       .  S
O1914      H1918   0.992       .  S
O1916      H1917   0.992       .  S
C1919      C1920   1.403       .  A
C1919      C1924   1.415       .  A
C1920      C1921   1.399       .  A
C1920      H1925   1.083       .  S
C1921      C1922   1.418       .  A
C1921      O1926   1.373       .  S
C1922      C1923   1.410       .  A
C1923      C1924   1.407       .  A
C1923      H1927   1.078       .  S
C1924      O1928   1.372       .  S
O1926      H1930   0.992       .  S
O1928      H1929   0.992       .  S
C1931      C1932   1.405       .  A
C1931      C1936   1.410       .  A
C1932      C1933   1.407       .  A
C1932      H1937   1.084       .  S
C1933      C1934   1.419       .  A
C1933      O1938   1.371       .  S
C1934      C1935   1.411       .  A
C1935      C1936   1.399       .  A
C1935      H1939   1.078       .  S
C1936      O1940   1.372       .  S
O1938      H1942   0.992       .  S
O1940      H1941   0.992       .  S
C1943      C1944   1.412       .  A
C1943      C1948   1.415       .  A
C1944      C1945   1.406       .  A
C1944      H1949   1.077       .  S
C1945      C1946   1.414       .  A
C1945      O1950   1.372       .  S
C1946      C1947   1.405       .  A
C1947      C1948   1.399       .  A
C1947      H1951   1.083       .  S
C1948      O1952   1.372       .  S
O1950      H1954   0.992       .  S
O1952      H1953   0.992       .  S
C1955      C1956   1.403       .  A
C1955      C1960   1.405       .  A
C1956      C1957   1.407       .  A
C1956      H1961   1.084       .  S
C1957      C1958   1.419       .  A
C1957      O1962   1.372       .  S
C1958      C1959   1.413       .  A
C1959      C1960   1.399       .  A
C1959      H1963   1.074       .  S
C1960      O1964   1.373       .  S
O1962      H1966   0.992       .  S
O1964      H1965   0.992       .  S
C1967      C1968   1.413       .  A
C1967      C1972   1.419       .  A
C1968      C1969   1.401       .  A
C1968      H1973   1.076       .  S
C1969      C1970   1.407       .  A
C1969      O1974   1.372       .  S
C1970      C1971   1.404       .  A
C1971      C1972   1.407       .  A
C1971      H1975   1.083       .  S
C1972      O1976   1.372       .  S
O1974      H1978   0.992       .  S
O1976      H1977   0.992       .  S
C1979      C1980   1.405       .  A
C1979      C1984   1.410       .  A
C1980      C1981   1.405       .  A
C1980      H1985   1.084       .  S
C1981      C1982   1.419       .  A
C1981      O1986   1.371       .  S
C1982      C1983   1.411       .  A
C1983      C1984   1.401       .  A
C1983      H1987   1.080       .  S
C1984      O1988   1.372       .  S
O1986      H1990   0.992       .  S
O1988      H1989   0.992       .  S
O1991      C1993   1.288       .  A
O1992      C1993   1.289       .  A
C1993      C2344   1.495       .  S
O1994      C1996   1.291       .  A
O1994     Zr2006   2.453       .  S
O1995      C1996   1.285       .  A
O1995     Zr2428   2.416       .  S
C1996      C2308   1.484       .  S
O1997      C1999   1.288       .  A
O1998      C1999   1.286       .  A
O1998     Zr2029   2.424       .  S
C1999      C2377   1.482       .  S
O2000      C2002   1.289       .  A
O2000     Zr2003   2.446       .  S
O2001      C2002   1.286       .  A
O2001     Zr2826   2.423       .  S
C2002      C2368   1.478       .  S
Zr2003     O2004   2.435       .  S
Zr2003     O2005   2.436       .  S
Zr2003     O2033   2.373       .  S
O2005      H2050   0.990       .  S
Zr2006     O2008   2.435       .  S
Zr2006     O2010   2.376       .  S
Zr2006     O2832   2.371       .  S
O2007      H2051   0.990   1_455  S
O2009     Zr2029   2.385       .  S
O2010     Zr2428   2.394       .  S
O2010      H2037   0.966       .  S
O2011      C2013   1.290       .  A
O2012      C2013   1.286       .  A
O2012     Zr2030   2.423   1_545  S
C2013      C2293   1.494       .  S
O2014      C2016   1.292       .  A
O2014     Zr2026   2.458   1_655  S
O2015      C2016   1.287       .  A
O2015     Zr2825   2.430   1_545  S
C2016      C2317   1.499       .  S
O2017      C2019   1.288       .  A
O2018      C2019   1.287       .  A
C2019      C2329   1.479       .  S
O2020      C2022   1.288       .  A
O2020     Zr2023   2.440   1_655  S
O2021      C2022   1.285       .  A
O2021     Zr2427   2.415   1_545  S
C2022      C2353   1.485       .  S
Zr2023     O2024   2.435       .  S
Zr2023     O2025   2.434       .  S
Zr2023     O2032   2.368   1_455  S
Zr2023     O2831   2.374   1_445  S
O2024      H2049   0.990   1_455  S
Zr2026     O2028   2.436       .  S
Zr2026     O2034   2.368   1_455  S
O2028      H2052   0.990   1_455  S
Zr2029     O2811   2.427       .  S
Zr2029     O2419   2.420       .  S
Zr2029     O2430   2.384       .  S
Zr2029     O2830   2.387       .  S
Zr2030     O2393   2.426   1_556  S
Zr2030     O2797   2.424       .  S
Zr2030     O2408   2.388   1_556  S
Zr2030     O2031   2.384   1_565  S
Zr2030     O2829   2.389       .  S
O2031      H2039   0.966       .  S
O2032     Zr2427   2.379   1_545  S
O2033     Zr2826   2.382       .  S
O2034     Zr2825   2.389   1_545  S
O2034      H2038   0.967       .  S
O2035     Zr2819   2.371   1_655  S
O2035      H2040   0.967       .  S
O2036     Zr2802   2.373   1_545  S
C2053      C2054   1.544       .  S
C2053      C2059   1.541       .  S
C2053      C2057   1.552       .  S
C2053      C2296   1.536       .  S
C2054      H2061   1.086       .  S
C2054      C2055   1.367       .  D
C2055      C2056   1.533       .  S
C2055      C2257   1.485       .  S
C2056      C2060   1.529       .  S
C2056      C2058   1.530       .  S
C2056      H2062   1.108       .  S
C2057      H2063   1.081       .  S
C2057      C2058   1.367       .  D
C2058      C2269   1.482       .  S
C2059      H2064   1.086       .  S
C2059      C2060   1.363       .  D
C2060      C2281   1.478       .  S
C2065      C2066   1.550       .  S
C2065      C2071   1.537       .  S
C2065      C2069   1.544       .  S
C2065      C2365   1.537       .  S
C2066      H2073   1.079       .  S
C2066      C2067   1.363       .  D
C2067      C2068   1.530       .  S
C2067      C2284   1.481       .  S
C2068      C2072   1.532       .  S
C2068      C2070   1.529       .  S
C2068      H2074   1.110       .  S
C2069      H2075   1.086       .  S
C2069      C2070   1.366       .  D
C2070      C2245   1.470       .  S
C2071      H2076   1.086       .  S
C2071      C2072   1.366       .  D
C2072      C2233   1.479       .  S
C2077      C2078   1.541       .  S
C2077      C2083   1.541       .  S
C2077      C2081   1.545       .  S
C2077      C2305   1.532       .  S
C2078      H2085   1.084       .  S
C2078      C2079   1.359       .  D
C2079      C2080   1.530       .  S
C2079      C2236   1.473       .  S
C2080      C2084   1.529       .  S
C2080      C2082   1.539       .  S
C2080      H2086   1.110       .  S
C2081      H2087   1.085       .  S
C2081      C2082   1.370       .  D
C2082      C2221   1.482       .  S
C2083      H2088   1.086       .  S
C2083      C2084   1.363       .  D
C2084      C2209   1.477       .  S
C2089      C2090   1.548       .  S
C2089      C2095   1.538       .  S
C2089      C2093   1.542       .  S
C2089      C2332   1.537       .  S
C2090      H2097   1.080       .  S
C2090      C2091   1.362       .  D
C2091      C2092   1.537       .  S
C2091      C2212   1.483       .  S
C2092      C2096   1.538       .  S
C2092      C2094   1.542       .  S
C2092      H2098   1.110       .  S
C2093      H2099   1.085       .  S
C2093      C2094   1.369       .  D
C2094      C2197   1.487       .  S
C2095      H2100   1.086       .  S
C2095      C2096   1.365       .  D
C2096      C2260   1.490       .  S
C2101      C2102   1.535       .  S
C2101      C2107   1.544       .  S
C2101      C2105   1.548       .  S
C2101      C2356   1.531       .  S
C2102      H2109   1.086       .  S
C2102      C2103   1.364       .  D
C2103      C2104   1.534       .  S
C2103      C2185   1.483       .  S
C2104      C2108   1.533       .  S
C2104      C2106   1.535       .  S
C2104      H2110   1.108       .  S
C2105      H2111   1.084       .  S
C2105      C2106   1.370       .  D
C2106      C2272   1.483       .  S
C2107      H2112   1.083       .  S
C2107      C2108   1.362       .  D
C2108      C2176   1.483       .  S
C2113      C2114   1.541       .  S
C2113      C2119   1.539       .  S
C2113      C2117   1.553       .  S
C2113      C2320   1.538       .  S
C2114      H2121   1.086       .  S
C2114      C2115   1.367       .  D
C2115      C2116   1.535       .  S
C2115      C2173   1.489       .  S
C2116      C2120   1.531       .  S
C2116      C2118   1.535       .  S
C2116      H2122   1.108       .  S
C2117      H2123   1.082       .  S
C2117      C2118   1.372       .  D
C2118      C2200   1.487       .  S
C2119      H2124   1.086       .  S
C2119      C2120   1.359       .  D
C2120      C2164   1.472       .  S
C2125      C2126   1.537       .  S
C2125      C2131   1.550       .  S
C2125      C2129   1.543       .  S
C2125      C2380   1.535       .  S
C2126      H2133   1.086       .  S
C2126      C2127   1.360       .  D
C2127      C2128   1.532       .  S
C2127      C2161   1.473       .  S
C2128      C2132   1.534       .  S
C2128      C2130   1.537       .  S
C2128      H2134   1.111       .  S
C2129      H2135   1.085       .  S
C2129      C2130   1.369       .  D
C2130      C2224   1.482       .  S
C2131      H2136   1.082       .  S
C2131      C2132   1.367       .  D
C2132      C2152   1.488       .  S
C2137      C2138   1.541       .  S
C2137      C2143   1.542       .  S
C2137      C2141   1.544       .  S
C2137      C2341   1.538       .  S
C2138      H2145   1.086       .  S
C2138      C2139   1.368       .  D
C2139      C2140   1.538       .  S
C2139      C2149   1.491       .  S
C2140      C2144   1.537       .  S
C2140      C2142   1.534       .  S
C2140      H2146   1.109       .  S
C2141      H2147   1.081       .  S
C2141      C2142   1.361       .  D
C2142      C2248   1.472       .  S
C2143      H2148   1.085       .  S
C2143      C2144   1.369       .  D
C2144      C2188   1.487       .  S
C2149      C2150   1.404       .  A
C2149      C2154   1.412       .  A
C2150      C2151   1.400       .  A
C2150      H2155   1.083       .  S
C2151      C2152   1.410       .  A
C2151      O2156   1.372       .  S
C2152      C2153   1.404       .  A
C2153      C2154   1.405       .  A
C2153      H2157   1.084       .  S
C2154      O2158   1.372       .  S
O2156      H2160   0.992       .  S
O2158      H2159   0.992       .  S
C2161      C2162   1.401       .  A
C2161      C2166   1.406       .  A
C2162      C2163   1.399       .  A
C2162      H2167   1.084       .  S
C2163      C2164   1.406       .  A
C2163      O2168   1.371       .  S
C2164      C2165   1.401       .  A
C2165      C2166   1.404       .  A
C2165      H2169   1.084       .  S
C2166      O2170   1.373       .  S
O2168      H2172   0.992       .  S
O2170      H2171   0.991       .  S
C2173      C2174   1.406       .  A
C2173      C2178   1.411       .  A
C2174      C2175   1.400       .  A
C2174      H2179   1.083       .  S
C2175      C2176   1.410       .  A
C2175      O2180   1.372       .  S
C2176      C2177   1.401       .  A
C2177      C2178   1.399       .  A
C2177      H2181   1.084       .  S
C2178      O2182   1.371       .  S
O2180      H2184   0.992       .  S
O2182      H2183   0.992       .  S
C2185      C2186   1.404       .  A
C2185      C2190   1.409       .  A
C2186      C2187   1.401       .  A
C2186      H2191   1.083       .  S
C2187      C2188   1.411       .  A
C2187      O2192   1.372       .  S
C2188      C2189   1.403       .  A
C2189      C2190   1.397       .  A
C2189      H2193   1.080       .  S
C2190      O2194   1.372       .  S
O2192      H2196   0.992       .  S
O2194      H2195   0.992       .  S
C2197      C2198   1.402       .  A
C2197      C2202   1.411       .  A
C2198      C2199   1.398       .  A
C2198      H2203   1.084       .  S
C2199      C2200   1.410       .  A
C2199      O2204   1.373       .  S
C2200      C2201   1.405       .  A
C2201      C2202   1.406       .  A
C2201      H2205   1.083       .  S
C2202      O2206   1.372       .  S
O2204      H2208   0.992       .  S
O2206      H2207   0.992       .  S
C2209      C2210   1.402       .  A
C2209      C2214   1.406       .  A
C2210      C2211   1.403       .  A
C2210      H2215   1.084       .  S
C2211      C2212   1.409       .  A
C2211      O2216   1.371       .  S
C2212      C2213   1.401       .  A
C2213      C2214   1.399       .  A
C2213      H2217   1.077       .  S
C2214      O2218   1.372       .  S
O2216      H2220   0.992       .  S
O2218      H2219   0.992       .  S
C2221      C2222   1.404       .  A
C2221      C2226   1.407       .  A
C2222      C2223   1.404       .  A
C2222      H2227   1.083       .  S
C2223      C2224   1.410       .  A
C2223      O2228   1.372       .  S
C2224      C2225   1.401       .  A
C2225      C2226   1.397       .  A
C2225      H2229   1.082       .  S
C2226      O2230   1.373       .  S
O2228      H2232   0.992       .  S
O2230      H2231   0.992       .  S
C2233      C2234   1.402       .  A
C2233      C2238   1.410       .  A
C2234      C2235   1.395       .  A
C2234      H2239   1.084       .  S
C2235      C2236   1.408       .  A
C2235      O2240   1.373       .  S
C2236      C2237   1.399       .  A
C2237      C2238   1.399       .  A
C2237      H2241   1.084       .  S
C2238      O2242   1.370       .  S
O2240      H2244   0.992       .  S
O2242      H2243   0.992       .  S
C2245      C2246   1.400       .  A
C2245      C2250   1.406       .  A
C2246      C2247   1.403       .  A
C2246      H2251   1.083       .  S
C2247      C2248   1.406       .  A
C2247      O2252   1.374       .  S
C2248      C2249   1.401       .  A
C2249      C2250   1.398       .  A
C2249      H2253   1.084       .  S
C2250      O2254   1.371       .  S
O2252      H2256   0.992       .  S
O2254      H2255   0.991       .  S
C2257      C2258   1.404       .  A
C2257      C2262   1.410       .  A
C2258      C2259   1.402       .  A
C2258      H2263   1.083       .  S
C2259      C2260   1.413       .  A
C2259      O2264   1.371       .  S
C2260      C2261   1.401       .  A
C2261      C2262   1.395       .  A
C2261      H2265   1.075       .  S
C2262      O2266   1.372       .  S
O2264      H2268   0.992       .  S
O2266      H2267   0.992       .  S
C2269      C2270   1.402       .  A
C2269      C2274   1.409       .  A
C2270      C2271   1.395       .  A
C2270      H2275   1.084       .  S
C2271      C2272   1.410       .  A
C2271      O2276   1.372       .  S
C2272      C2273   1.405       .  A
C2273      C2274   1.403       .  A
C2273      H2277   1.083       .  S
C2274      O2278   1.371       .  S
O2276      H2280   0.991       .  S
O2278      H2279   0.992       .  S
C2281      C2282   1.403       .  A
C2281      C2286   1.407       .  A
C2282      C2283   1.400       .  A
C2282      H2287   1.084       .  S
C2283      C2284   1.409       .  A
C2283      O2288   1.372       .  S
C2284      C2285   1.402       .  A
C2285      C2286   1.400       .  A
C2285      H2289   1.082       .  S
C2286      O2290   1.372       .  S
O2288      H2292   0.992       .  S
O2290      H2291   0.992       .  S
C2293      C2294   1.405       .  A
C2293      C2298   1.414       .  A
C2294      C2295   1.400       .  A
C2294      H2299   1.083       .  S
C2295      C2296   1.415       .  A
C2295      O2300   1.373       .  S
C2296      C2297   1.410       .  A
C2297      C2298   1.403       .  A
C2297      H2301   1.077       .  S
C2298      O2302   1.372       .  S
O2300      H2304   0.992       .  S
O2302      H2303   0.992       .  S
C2305      C2306   1.413       .  A
C2305      C2310   1.415       .  A
C2306      C2307   1.396       .  A
C2306      H2311   1.079       .  S
C2307      C2308   1.406       .  A
C2307      O2312   1.372       .  S
C2308      C2309   1.406       .  A
C2309      C2310   1.403       .  A
C2309      H2313   1.084       .  S
C2310      O2314   1.371       .  S
O2312      H2316   0.992       .  S
O2314      H2315   0.992       .  S
C2317      C2318   1.404       .  A
C2317      C2322   1.416       .  A
C2318      C2319   1.398       .  A
C2318      H2323   1.083       .  S
C2319      C2320   1.416       .  A
C2319      O2324   1.373       .  S
C2320      C2321   1.411       .  A
C2321      C2322   1.409       .  A
C2321      H2325   1.078       .  S
C2322      O2326   1.372       .  S
O2324      H2328   0.992       .  S
O2326      H2327   0.992       .  S
C2329      C2330   1.402       .  A
C2329      C2334   1.405       .  A
C2330      C2331   1.405       .  A
C2330      H2335   1.084       .  S
C2331      C2332   1.419       .  A
C2331      O2336   1.372       .  S
C2332      C2333   1.411       .  A
C2333      C2334   1.397       .  A
C2333      H2337   1.075       .  S
C2334      O2338   1.373       .  S
O2336      H2340   0.992       .  S
O2338      H2339   0.992       .  S
C2341      C2342   1.413       .  A
C2341      C2346   1.414       .  A
C2342      C2343   1.405       .  A
C2342      H2347   1.076       .  S
C2343      C2344   1.411       .  A
C2343      O2348   1.372       .  S
C2344      C2345   1.407       .  A
C2345      C2346   1.399       .  A
C2345      H2349   1.083       .  S
C2346      O2350   1.373       .  S
O2348      H2352   0.992       .  S
O2350      H2351   0.992       .  S
C2353      C2354   1.406       .  A
C2353      C2358   1.409       .  A
C2354      C2355   1.402       .  A
C2354      H2359   1.083       .  S
C2355      C2356   1.416       .  A
C2355      O2360   1.370       .  S
C2356      C2357   1.410       .  A
C2357      C2358   1.394       .  A
C2357      H2361   1.081       .  S
C2358      O2362   1.372       .  S
O2360      H2364   0.992       .  S
O2362      H2363   0.992       .  S
C2365      C2366   1.412       .  A
C2365      C2370   1.419       .  A
C2366      C2367   1.396       .  A
C2366      H2371   1.074       .  S
C2367      C2368   1.404       .  A
C2367      O2372   1.372       .  S
C2368      C2369   1.402       .  A
C2369      C2370   1.406       .  A
C2369      H2373   1.084       .  S
C2370      O2374   1.373       .  S
O2372      H2376   0.992       .  S
O2374      H2375   0.992       .  S
C2377      C2378   1.403       .  A
C2377      C2382   1.407       .  A
C2378      C2379   1.404       .  A
C2378      H2383   1.084       .  S
C2379      C2380   1.419       .  A
C2379      O2384   1.371       .  S
C2380      C2381   1.410       .  A
C2381      C2382   1.396       .  A
C2381      H2385   1.078       .  S
C2382      O2386   1.372       .  S
O2384      H2388   0.992       .  S
O2386      H2387   0.992       .  S
O2389      C2391   1.290       .  A
O2390      C2391   1.288       .  A
O2390     Zr2825   2.432       .  S
C2391      C2742   1.495       .  S
O2392      C2394   1.290       .  A
O2392     Zr2404   2.447       .  S
O2393      C2394   1.286       .  A
C2394      C2706   1.485       .  S
O2395      C2397   1.289       .  A
O2396      C2397   1.286       .  A
O2396     Zr2427   2.424   1_554  S
C2397      C2775   1.488       .  S
O2398      C2400   1.291       .  A
O2398     Zr2401   2.453       .  S
O2399      C2400   1.288       .  A
C2400      C2766   1.487       .  S
Zr2401     O2402   2.435       .  S
Zr2401     O2403   2.436       .  S
Zr2401     O2806   2.368       .  S
Zr2401     O2431   2.373       .  S
O2403      H2448   0.990       .  S
Zr2404     O2406   2.434       .  S
Zr2404     O2408   2.369       .  S
O2405      H2449   0.990       .  S
O2407     Zr2427   2.382   1_554  S
O2408     Zr2799   2.370   1_554  S
O2408      H2435   0.966       .  S
O2409      C2411   1.288       .  A
O2410      C2411   1.288       .  A
O2410     Zr2428   2.432       .  S
C2411      C2691   1.496       .  S
O2412      C2414   1.290       .  A
O2412     Zr2424   2.446   1_655  S
O2413      C2414   1.288       .  A
C2414      C2715   1.495       .  S
O2415      C2417   1.287       .  A
O2416      C2417   1.286       .  A
O2416     Zr2826   2.424   1_554  S
C2417      C2727   1.481       .  S
O2418      C2420   1.287       .  A
O2418     Zr2421   2.432   1_655  S
O2419      C2420   1.286       .  A
C2420      C2751   1.480       .  S
Zr2421     O2422   2.434       .  S
Zr2421     O2423   2.434       .  S
Zr2421     O2430   2.374   1_455  S
O2422      H2447   0.990   1_455  S
Zr2424     O2426   2.438       .  S
Zr2424     O2828   2.369   1_454  S
Zr2424     O2432   2.374   1_455  S
O2426      H2450   0.990   1_455  S
Zr2427     O2788   2.417       .  S
Zr2427     O2831   2.387       .  S
Zr2428     O2814   2.437       .  S
Zr2428     O2429   2.385       .  S
Zr2428     O2832   2.385       .  S
O2429      H2437   0.967       .  S
O2430     Zr2822   2.369   1_655  S
O2432      H2436   0.967       .  S
O2433     Zr2825   2.388       .  S
O2433      H2438   0.967       .  S
O2434     Zr2826   2.386   1_554  S
C2451      C2452   1.542       .  S
C2451      C2457   1.540       .  S
C2451      C2455   1.557       .  S
C2451      C2694   1.541       .  S
C2452      H2459   1.086       .  S
C2452      C2453   1.367       .  D
C2453      C2454   1.538       .  S
C2453      C2655   1.489       .  S
C2454      C2458   1.537       .  S
C2454      C2456   1.536       .  S
C2454      H2460   1.108       .  S
C2455      H2461   1.081       .  S
C2455      C2456   1.370       .  D
C2456      C2667   1.496       .  S
C2457      H2462   1.086       .  S
C2457      C2458   1.364       .  D
C2458      C2679   1.488       .  S
C2463      C2464   1.552       .  S
C2463      C2469   1.543       .  S
C2463      C2467   1.544       .  S
C2463      C2763   1.547       .  S
C2464      H2471   1.079       .  S
C2464      C2465   1.365       .  D
C2465      C2466   1.535       .  S
C2465      C2682   1.492       .  S
C2466      C2470   1.536       .  S
C2466      C2468   1.534       .  S
C2466      H2472   1.109       .  S
C2467      H2473   1.085       .  S
C2467      C2468   1.366       .  D
C2468      C2643   1.478       .  S
C2469      H2474   1.086       .  S
C2469      C2470   1.371       .  D
C2470      C2631   1.491       .  S
C2475      C2476   1.546       .  S
C2475      C2481   1.540       .  S
C2475      C2479   1.545       .  S
C2475      C2703   1.537       .  S
C2476      H2483   1.082       .  S
C2476      C2477   1.362       .  D
C2477      C2478   1.532       .  S
C2477      C2634   1.487       .  S
C2478      C2482   1.529       .  S
C2478      C2480   1.539       .  S
C2478      H2484   1.110       .  S
C2479      H2485   1.085       .  S
C2479      C2480   1.372       .  D
C2480      C2619   1.482       .  S
C2481      H2486   1.086       .  S
C2481      C2482   1.362       .  D
C2482      C2607   1.473       .  S
C2487      C2488   1.543       .  S
C2487      C2493   1.537       .  S
C2487      C2491   1.544       .  S
C2487      C2730   1.531       .  S
C2488      H2495   1.085       .  S
C2488      C2489   1.359       .  D
C2489      C2490   1.533       .  S
C2489      C2610   1.474       .  S
C2490      C2494   1.538       .  S
C2490      C2492   1.542       .  S
C2490      H2496   1.110       .  S
C2491      H2497   1.083       .  S
C2491      C2492   1.370       .  D
C2492      C2595   1.488       .  S
C2493      H2498   1.086       .  S
C2493      C2494   1.364       .  D
C2494      C2658   1.489       .  S
C2499      C2500   1.533       .  S
C2499      C2505   1.544       .  S
C2499      C2503   1.552       .  S
C2499      C2754   1.534       .  S
C2500      H2507   1.086       .  S
C2500      C2501   1.363       .  D
C2501      C2502   1.538       .  S
C2501      C2583   1.486       .  S
C2502      C2506   1.534       .  S
C2502      C2504   1.540       .  S
C2502      H2508   1.107       .  S
C2503      H2509   1.085       .  S
C2503      C2504   1.374       .  D
C2504      C2670   1.497       .  S
C2505      H2510   1.081       .  S
C2505      C2506   1.361       .  D
C2506      C2574   1.486       .  S
C2511      C2512   1.541       .  S
C2511      C2517   1.538       .  S
C2511      C2515   1.555       .  S
C2511      C2718   1.536       .  S
C2512      H2519   1.086       .  S
C2512      C2513   1.368       .  D
C2513      C2514   1.535       .  S
C2513      C2571   1.490       .  S
C2514      C2518   1.529       .  S
C2514      C2516   1.532       .  S
C2514      H2520   1.107       .  S
C2515      H2521   1.081       .  S
C2515      C2516   1.370       .  D
C2516      C2598   1.486       .  S
C2517      H2522   1.086       .  S
C2517      C2518   1.360       .  D
C2518      C2562   1.468       .  S
C2523      C2524   1.539       .  S
C2523      C2529   1.547       .  S
C2523      C2527   1.546       .  S
C2523      C2778   1.538       .  S
C2524      H2531   1.086       .  S
C2524      C2525   1.362       .  D
C2525      C2526   1.528       .  S
C2525      C2559   1.472       .  S
C2526      C2530   1.530       .  S
C2526      C2528   1.536       .  S
C2526      H2532   1.111       .  S
C2527      H2533   1.083       .  S
C2527      C2528   1.370       .  D
C2528      C2622   1.481       .  S
C2529      H2534   1.084       .  S
C2529      C2530   1.365       .  D
C2530      C2550   1.481       .  S
C2535      C2536   1.538       .  S
C2535      C2541   1.541       .  S
C2535      C2539   1.549       .  S
C2535      C2739   1.538       .  S
C2536      H2543   1.086       .  S
C2536      C2537   1.364       .  D
C2537      C2538   1.537       .  S
C2537      C2547   1.484       .  S
C2538      C2542   1.539       .  S
C2538      C2540   1.539       .  S
C2538      H2544   1.109       .  S
C2539      H2545   1.081       .  S
C2539      C2540   1.366       .  D
C2540      C2646   1.482       .  S
C2541      H2546   1.085       .  S
C2541      C2542   1.368       .  D
C2542      C2586   1.491       .  S
C2547      C2548   1.403       .  A
C2547      C2552   1.410       .  A
C2548      C2549   1.398       .  A
C2548      H2553   1.084       .  S
C2549      C2550   1.408       .  A
C2549      O2554   1.372       .  S
C2550      C2551   1.403       .  A
C2551      C2552   1.403       .  A
C2551      H2555   1.084       .  S
C2552      O2556   1.372       .  S
O2554      H2558   0.992       .  S
O2556      H2557   0.992       .  S
C2559      C2560   1.401       .  A
C2559      C2564   1.407       .  A
C2560      C2561   1.397       .  A
C2560      H2565   1.084       .  S
C2561      C2562   1.405       .  A
C2561      O2566   1.372       .  S
C2562      C2563   1.400       .  A
C2563      C2564   1.403       .  A
C2563      H2567   1.084       .  S
C2564      O2568   1.374       .  S
O2566      H2570   0.992       .  S
O2568      H2569   0.992       .  S
C2571      C2572   1.405       .  A
C2571      C2576   1.411       .  A
C2572      C2573   1.400       .  A
C2572      H2577   1.083       .  S
C2573      C2574   1.410       .  A
C2573      O2578   1.372       .  S
C2574      C2575   1.402       .  A
C2575      C2576   1.399       .  A
C2575      H2579   1.083       .  S
C2576      O2580   1.371       .  S
O2578      H2582   0.992       .  S
O2580      H2581   0.992       .  S
C2583      C2584   1.406       .  A
C2583      C2588   1.407       .  A
C2584      C2585   1.403       .  A
C2584      H2589   1.083       .  S
C2585      C2586   1.413       .  A
C2585      O2590   1.372       .  S
C2586      C2587   1.403       .  A
C2587      C2588   1.395       .  A
C2587      H2591   1.078       .  S
C2588      O2592   1.372       .  S
O2590      H2594   0.992       .  S
O2592      H2593   0.992       .  S
C2595      C2596   1.402       .  A
C2595      C2600   1.412       .  A
C2596      C2597   1.400       .  A
C2596      H2601   1.084       .  S
C2597      C2598   1.410       .  A
C2597      O2602   1.373       .  S
C2598      C2599   1.404       .  A
C2599      C2600   1.405       .  A
C2599      H2603   1.083       .  S
C2600      O2604   1.372       .  S
O2602      H2606   0.992       .  S
O2604      H2605   0.992       .  S
C2607      C2608   1.402       .  A
C2607      C2612   1.405       .  A
C2608      C2609   1.401       .  A
C2608      H2613   1.084       .  S
C2609      C2610   1.407       .  A
C2609      O2614   1.372       .  S
C2610      C2611   1.401       .  A
C2611      C2612   1.399       .  A
C2611      H2615   1.082       .  S
C2612      O2616   1.372       .  S
O2614      H2618   0.992       .  S
O2616      H2617   0.992       .  S
C2619      C2620   1.404       .  A
C2619      C2624   1.407       .  A
C2620      C2621   1.404       .  A
C2620      H2625   1.083       .  S
C2621      C2622   1.409       .  A
C2621      O2626   1.372       .  S
C2622      C2623   1.400       .  A
C2623      C2624   1.396       .  A
C2623      H2627   1.081       .  S
C2624      O2628   1.372       .  S
O2626      H2630   0.992       .  S
O2628      H2629   0.992       .  S
C2631      C2632   1.403       .  A
C2631      C2636   1.413       .  A
C2632      C2633   1.400       .  A
C2632      H2637   1.083       .  S
C2633      C2634   1.410       .  A
C2633      O2638   1.372       .  S
C2634      C2635   1.403       .  A
C2635      C2636   1.405       .  A
C2635      H2639   1.084       .  S
C2636      O2640   1.372       .  S
O2638      H2642   0.992       .  S
O2640      H2641   0.992       .  S
C2643      C2644   1.400       .  A
C2643      C2648   1.406       .  A
C2644      C2645   1.406       .  A
C2644      H2649   1.083       .  S
C2645      C2646   1.408       .  A
C2645      O2650   1.375       .  S
C2646      C2647   1.403       .  A
C2647      C2648   1.403       .  A
C2647      H2651   1.084       .  S
C2648      O2652   1.371       .  S
O2650      H2654   0.992       .  S
O2652      H2653   0.992       .  S
C2655      C2656   1.406       .  A
C2655      C2660   1.410       .  A
C2656      C2657   1.403       .  A
C2656      H2661   1.083       .  S
C2657      C2658   1.413       .  A
C2657      O2662   1.372       .  S
C2658      C2659   1.402       .  A
C2659      C2660   1.396       .  A
C2659      H2663   1.080       .  S
C2660      O2664   1.371       .  S
O2662      H2666   0.992       .  S
O2664      H2665   0.992       .  S
C2667      C2668   1.404       .  A
C2667      C2672   1.412       .  A
C2668      C2669   1.401       .  A
C2668      H2673   1.084       .  S
C2669      C2670   1.411       .  A
C2669      O2674   1.371       .  S
C2670      C2671   1.408       .  A
C2671      C2672   1.409       .  A
C2671      H2675   1.083       .  S
C2672      O2676   1.371       .  S
O2674      H2678   0.992       .  S
O2676      H2677   0.992       .  S
C2679      C2680   1.405       .  A
C2679      C2684   1.408       .  A
C2680      C2681   1.404       .  A
C2680      H2685   1.084       .  S
C2681      C2682   1.412       .  A
C2681      O2686   1.373       .  S
C2682      C2683   1.404       .  A
C2683      C2684   1.402       .  A
C2683      H2687   1.082       .  S
C2684      O2688   1.372       .  S
O2686      H2690   0.992       .  S
O2688      H2689   0.992       .  S
C2691      C2692   1.407       .  A
C2691      C2696   1.412       .  A
C2692      C2693   1.402       .  A
C2692      H2697   1.083       .  S
C2693      C2694   1.418       .  A
C2693      O2698   1.373       .  S
C2694      C2695   1.410       .  A
C2695      C2696   1.403       .  A
C2695      H2699   1.076       .  S
C2696      O2700   1.371       .  S
O2698      H2702   0.992       .  S
O2700      H2701   0.992       .  S
C2703      C2704   1.412       .  A
C2703      C2708   1.417       .  A
C2704      C2705   1.395       .  A
C2704      H2709   1.078       .  S
C2705      C2706   1.406       .  A
C2705      O2710   1.372       .  S
C2706      C2707   1.406       .  A
C2707      C2708   1.407       .  A
C2707      H2711   1.084       .  S
C2708      O2712   1.371       .  S
O2710      H2714   0.992       .  S
O2712      H2713   0.992       .  S
C2715      C2716   1.406       .  A
C2715      C2720   1.413       .  A
C2716      C2717   1.401       .  A
C2716      H2721   1.083       .  S
C2717      C2718   1.417       .  A
C2717      O2722   1.373       .  S
C2718      C2719   1.409       .  A
C2719      C2720   1.403       .  A
C2719      H2723   1.077       .  S
C2720      O2724   1.372       .  S
O2722      H2726   0.992       .  S
O2724      H2725   0.992       .  S
C2727      C2728   1.403       .  A
C2727      C2732   1.408       .  A
C2728      C2729   1.401       .  A
C2728      H2733   1.084       .  S
C2729      C2730   1.418       .  A
C2729      O2734   1.370       .  S
C2730      C2731   1.411       .  A
C2731      C2732   1.395       .  A
C2731      H2735   1.080       .  S
C2732      O2736   1.373       .  S
O2734      H2738   0.992       .  S
O2736      H2737   0.992       .  S
C2739      C2740   1.410       .  A
C2739      C2744   1.417       .  A
C2740      C2741   1.403       .  A
C2740      H2745   1.077       .  S
C2741      C2742   1.413       .  A
C2741      O2746   1.372       .  S
C2742      C2743   1.405       .  A
C2743      C2744   1.402       .  A
C2743      H2747   1.083       .  S
C2744      O2748   1.373       .  S
O2746      H2750   0.992       .  S
O2748      H2749   0.992       .  S
C2751      C2752   1.405       .  A
C2751      C2756   1.407       .  A
C2752      C2753   1.404       .  A
C2752      H2757   1.084       .  S
C2753      C2754   1.416       .  A
C2753      O2758   1.370       .  S
C2754      C2755   1.412       .  A
C2755      C2756   1.394       .  A
C2755      H2759   1.079       .  S
C2756      O2760   1.373       .  S
O2758      H2762   0.992       .  S
O2760      H2761   0.992       .  S
C2763      C2764   1.414       .  A
C2763      C2768   1.420       .  A
C2764      C2765   1.400       .  A
C2764      H2769   1.075       .  S
C2765      C2766   1.405       .  A
C2765      O2770   1.373       .  S
C2766      C2767   1.404       .  A
C2767      C2768   1.410       .  A
C2767      H2771   1.083       .  S
C2768      O2772   1.372       .  S
O2770      H2774   0.992       .  S
O2772      H2773   0.992       .  S
C2775      C2776   1.405       .  A
C2775      C2780   1.408       .  A
C2776      C2777   1.405       .  A
C2776      H2781   1.084       .  S
C2777      C2778   1.420       .  A
C2777      O2782   1.370       .  S
C2778      C2779   1.411       .  A
C2779      C2780   1.397       .  A
C2779      H2783   1.080       .  S
C2780      O2784   1.372       .  S
O2782      H2786   0.992       .  S
O2784      H2785   0.992       .  S
O2787      C2789   1.289       .  A
O2788      C2789   1.285       .  A
C2789      C3140   1.491       .  S
O2790      C2792   1.287       .  A
O2790     Zr2802   2.438       .  S
O2791      C2792   1.287       .  A
C2792      C3104   1.488       .  S
O2793      C2795   1.287       .  A
O2794      C2795   1.288       .  A
O2794     Zr2825   2.429       .  S
C2795      C3173   1.481       .  S
O2796      C2798   1.288       .  A
O2796     Zr2799   2.442       .  S
O2797      C2798   1.286       .  A
C2798      C3164   1.477       .  S
Zr2799     O2800   2.433       .  S
Zr2799     O2801   2.438       .  S
Zr2799     O2829   2.375       .  S
O2801      H2846   0.990       .  S
Zr2802     O2804   2.435       .  S
Zr2802     O2806   2.375       .  S
O2803      H2847   0.990       .  S
O2805     Zr2825   2.386       .  S
O2806      H2833   0.965       .  S
O2807      C2809   1.290       .  A
O2808      C2809   1.285       .  A
O2808     Zr2826   2.420       .  S
C2809      C3089   1.494       .  S
O2810      C2812   1.293       .  A
O2810     Zr2822   2.464   1_655  S
O2811      C2812   1.287       .  A
C2812      C3113   1.503       .  S
O2813      C2815   1.288       .  A
O2814      C2815   1.289       .  A
C2815      C3125   1.483       .  S
O2816      C2818   1.288       .  A
O2816     Zr2819   2.437   1_655  S
O2817      C2818   1.289       .  A
C2818      C3149   1.488       .  S
Zr2819     O2820   2.437       .  S
Zr2819     O2821   2.434       .  S
Zr2819     O2828   2.371   1_455  S
O2820      H2845   0.990       .  S
Zr2822     O2824   2.435       .  S
Zr2822     O2830   2.367   1_455  S
O2824      H2848   0.990       .  S
Zr2826     O2827   2.385       .  S
O2827      H2835   0.966       .  S
O2830      H2834   0.967       .  S
O2831      H2836   0.966       .  S
C2849      C2850   1.542       .  S
C2849      C2855   1.538       .  S
C2849      C2853   1.552       .  S
C2849      C3092   1.534       .  S
C2850      H2857   1.086       .  S
C2850      C2851   1.367       .  D
C2851      C2852   1.535       .  S
C2851      C3053   1.488       .  S
C2852      C2856   1.532       .  S
C2852      C2854   1.532       .  S
C2852      H2858   1.107       .  S
C2853      H2859   1.082       .  S
C2853      C2854   1.368       .  D
C2854      C3065   1.483       .  S
C2855      H2860   1.086       .  S
C2855      C2856   1.363       .  D
C2856      C3077   1.482       .  S
C2861      C2862   1.548       .  S
C2861      C2867   1.539       .  S
C2861      C2865   1.543       .  S
C2861      C3161   1.537       .  S
C2862      H2869   1.080       .  S
C2862      C2863   1.364       .  D
C2863      C2864   1.534       .  S
C2863      C3080   1.484       .  S
C2864      C2868   1.538       .  S
C2864      C2866   1.533       .  S
C2864      H2870   1.109       .  S
C2865      H2871   1.086       .  S
C2865      C2866   1.364       .  D
C2866      C3041   1.474       .  S
C2867      H2872   1.086       .  S
C2867      C2868   1.368       .  D
C2868      C3029   1.491       .  S
C2873      C2874   1.541       .  S
C2873      C2879   1.543       .  S
C2873      C2877   1.549       .  S
C2873      C3101   1.536       .  S
C2874      H2881   1.085       .  S
C2874      C2875   1.365       .  D
C2875      C2876   1.535       .  S
C2875      C3032   1.486       .  S
C2876      C2880   1.531       .  S
C2876      C2878   1.534       .  S
C2876      H2882   1.110       .  S
C2877      H2883   1.077       .  S
C2877      C2878   1.365       .  D
C2878      C3017   1.476       .  S
C2879      H2884   1.087       .  S
C2879      C2880   1.361       .  D
C2880      C3005   1.478       .  S
C2885      C2886   1.549       .  S
C2885      C2891   1.540       .  S
C2885      C2889   1.543       .  S
C2885      C3128   1.539       .  S
C2886      H2893   1.081       .  S
C2886      C2887   1.364       .  D
C2887      C2888   1.534       .  S
C2887      C3008   1.482       .  S
C2888      C2892   1.536       .  S
C2888      C2890   1.539       .  S
C2888      H2894   1.110       .  S
C2889      H2895   1.085       .  S
C2889      C2890   1.368       .  D
C2890      C2993   1.487       .  S
C2891      H2896   1.086       .  S
C2891      C2892   1.367       .  D
C2892      C3056   1.491       .  S
C2897      C2898   1.537       .  S
C2897      C2903   1.548       .  S
C2897      C2901   1.544       .  S
C2897      C3152   1.538       .  S
C2898      H2905   1.086       .  S
C2898      C2899   1.366       .  D
C2899      C2900   1.538       .  S
C2899      C2981   1.489       .  S
C2900      C2904   1.534       .  S
C2900      C2902   1.536       .  S
C2900      H2906   1.108       .  S
C2901      H2907   1.085       .  S
C2901      C2902   1.367       .  D
C2902      C3068   1.481       .  S
C2903      H2908   1.081       .  S
C2903      C2904   1.366       .  D
C2904      C2972   1.490       .  S
C2909      C2910   1.544       .  S
C2909      C2915   1.539       .  S
C2909      C2913   1.555       .  S
C2909      C3116   1.543       .  S
C2910      H2917   1.086       .  S
C2910      C2911   1.370       .  D
C2911      C2912   1.533       .  S
C2911      C2969   1.494       .  S
C2912      C2916   1.530       .  S
C2912      C2914   1.533       .  S
C2912      H2918   1.108       .  S
C2913      H2919   1.082       .  S
C2913      C2914   1.371       .  D
C2914      C2996   1.487       .  S
C2915      H2920   1.086       .  S
C2915      C2916   1.360       .  D
C2916      C2960   1.468       .  S
C2921      C2922   1.535       .  S
C2921      C2927   1.549       .  S
C2921      C2925   1.544       .  S
C2921      C3176   1.533       .  S
C2922      H2929   1.087       .  S
C2922      C2923   1.358       .  D
C2923      C2924   1.529       .  S
C2923      C2957   1.467       .  S
C2924      C2928   1.530       .  S
C2924      C2926   1.535       .  S
C2924      H2930   1.111       .  S
C2925      H2931   1.085       .  S
C2925      C2926   1.369       .  D
C2926      C3020   1.478       .  S
C2927      H2932   1.081       .  S
C2927      C2928   1.367       .  D
C2928      C2948   1.483       .  S
C2933      C2934   1.536       .  S
C2933      C2939   1.540       .  S
C2933      C2937   1.546       .  S
C2933      C3137   1.532       .  S
C2934      H2941   1.086       .  S
C2934      C2935   1.364       .  D
C2935      C2936   1.538       .  S
C2935      C2945   1.487       .  S
C2936      C2940   1.540       .  S
C2936      C2938   1.539       .  S
C2936      H2942   1.109       .  S
C2937      H2943   1.082       .  S
C2937      C2938   1.365       .  D
C2938      C3044   1.477       .  S
C2939      H2944   1.085       .  S
C2939      C2940   1.367       .  D
C2940      C2984   1.490       .  S
C2945      C2946   1.404       .  A
C2945      C2950   1.411       .  A
C2946      C2947   1.396       .  A
C2946      H2951   1.083       .  S
C2947      C2948   1.409       .  A
C2947      O2952   1.372       .  S
C2948      C2949   1.404       .  A
C2949      C2950   1.405       .  A
C2949      H2953   1.084       .  S
C2950      O2954   1.372       .  S
O2952      H2956   0.992       .  S
O2954      H2955   0.992       .  S
C2957      C2958   1.399       .  A
C2957      C2962   1.406       .  A
C2958      C2959   1.396       .  A
C2958      H2963   1.084       .  S
C2959      C2960   1.405       .  A
C2959      O2964   1.371       .  S
C2960      C2961   1.400       .  A
C2961      C2962   1.403       .  A
C2961      H2965   1.084       .  S
C2962      O2966   1.373       .  S
O2964      H2968   0.992       .  S
O2966      H2967   0.992       .  S
C2969      C2970   1.404       .  A
C2969      C2974   1.414       .  A
C2970      C2971   1.400       .  A
C2970      H2975   1.083       .  S
C2971      C2972   1.410       .  A
C2971      O2976   1.372       .  S
C2972      C2973   1.403       .  A
C2973      C2974   1.403       .  A
C2973      H2977   1.083       .  S
C2974      O2978   1.371       .  S
O2976      H2980   0.992       .  S
O2978      H2979   0.992       .  S
C2981      C2982   1.404       .  A
C2981      C2986   1.411       .  A
C2982      C2983   1.403       .  A
C2982      H2987   1.083       .  S
C2983      C2984   1.413       .  A
C2983      O2988   1.372       .  S
C2984      C2985   1.403       .  A
C2985      C2986   1.398       .  A
C2985      H2989   1.081       .  S
C2986      O2990   1.372       .  S
O2988      H2992   0.992       .  S
O2990      H2991   0.992       .  S
C2993      C2994   1.402       .  A
C2993      C2998   1.411       .  A
C2994      C2995   1.399       .  A
C2994      H2999   1.084       .  S
C2995      C2996   1.410       .  A
C2995      O3000   1.373       .  S
C2996      C2997   1.404       .  A
C2997      C2998   1.407       .  A
C2997      H3001   1.083       .  S
C2998      O3002   1.371       .  S
O3000      H3004   0.992       .  S
O3002      H3003   0.992       .  S
C3005      C3006   1.404       .  A
C3005      C3010   1.405       .  A
C3006      C3007   1.402       .  A
C3006      H3011   1.084       .  S
C3007      C3008   1.407       .  A
C3007      O3012   1.371       .  S
C3008      C3009   1.402       .  A
C3009      C3010   1.399       .  A
C3009      H3013   1.077       .  S
C3010      O3014   1.372       .  S
O3012      H3016   0.992       .  S
O3014      H3015   0.992       .  S
C3017      C3018   1.404       .  A
C3017      C3022   1.405       .  A
C3018      C3019   1.403       .  A
C3018      H3023   1.084       .  S
C3019      C3020   1.409       .  A
C3019      O3024   1.372       .  S
C3020      C3021   1.401       .  A
C3021      C3022   1.394       .  A
C3021      H3025   1.081       .  S
C3022      O3026   1.372       .  S
O3024      H3028   0.992       .  S
O3026      H3027   0.992       .  S
C3029      C3030   1.405       .  A
C3029      C3034   1.411       .  A
C3030      C3031   1.401       .  A
C3030      H3035   1.083       .  S
C3031      C3032   1.410       .  A
C3031      O3036   1.372       .  S
C3032      C3033   1.403       .  A
C3033      C3034   1.402       .  A
C3033      H3037   1.084       .  S
C3034      O3038   1.371       .  S
O3036      H3040   0.992       .  S
O3038      H3039   0.992       .  S
C3041      C3042   1.400       .  A
C3041      C3046   1.406       .  A
C3042      C3043   1.405       .  A
C3042      H3047   1.084       .  S
C3043      C3044   1.407       .  A
C3043      O3048   1.374       .  S
C3044      C3045   1.402       .  A
C3045      C3046   1.401       .  A
C3045      H3049   1.084       .  S
C3046      O3050   1.371       .  S
O3048      H3052   0.992       .  S
O3050      H3051   0.992       .  S
C3053      C3054   1.406       .  A
C3053      C3058   1.410       .  A
C3054      C3055   1.401       .  A
C3054      H3059   1.083       .  S
C3055      C3056   1.412       .  A
C3055      O3060   1.371       .  S
C3056      C3057   1.403       .  A
C3057      C3058   1.396       .  A
C3057      H3061   1.076       .  S
C3058      O3062   1.372       .  S
O3060      H3064   0.992       .  S
O3062      H3063   0.992       .  S
C3065      C3066   1.403       .  A
C3065      C3070   1.409       .  A
C3066      C3067   1.394       .  A
C3066      H3071   1.084       .  S
C3067      C3068   1.408       .  A
C3067      O3072   1.372       .  S
C3068      C3069   1.405       .  A
C3069      C3070   1.404       .  A
C3069      H3073   1.083       .  S
C3070      O3074   1.371       .  S
O3072      H3076   0.992       .  S
O3074      H3075   0.992       .  S
C3077      C3078   1.403       .  A
C3077      C3082   1.408       .  A
C3078      C3079   1.400       .  A
C3078      H3083   1.084       .  S
C3079      C3080   1.410       .  A
C3079      O3084   1.372       .  S
C3080      C3081   1.403       .  A
C3081      C3082   1.401       .  A
C3081      H3085   1.083       .  S
C3082      O3086   1.372       .  S
O3084      H3088   0.992       .  S
O3086      H3087   0.992       .  S
C3089      C3090   1.405       .  A
C3089      C3094   1.415       .  A
C3090      C3091   1.399       .  A
C3090      H3095   1.083       .  S
C3091      C3092   1.417       .  A
C3091      O3096   1.373       .  S
C3092      C3093   1.409       .  A
C3093      C3094   1.402       .  A
C3093      H3097   1.078       .  S
C3094      O3098   1.372       .  S
O3096      H3100   0.992       .  S
O3098      H3099   0.992       .  S
C3101      C3102   1.411       .  A
C3101      C3106   1.418       .  A
C3102      C3103   1.396       .  A
C3102      H3107   1.084       .  S
C3103      C3104   1.410       .  A
C3103      O3108   1.372       .  S
C3104      C3105   1.405       .  A
C3105      C3106   1.401       .  A
C3105      H3109   1.083       .  S
C3106      O3110   1.367       .  S
O3108      H3112   0.992       .  S
O3110      H3111   0.992       .  S
C3113      C3114   1.405       .  A
C3113      C3118   1.417       .  A
C3114      C3115   1.403       .  A
C3114      H3119   1.083       .  S
C3115      C3116   1.418       .  A
C3115      O3120   1.372       .  S
C3116      C3117   1.410       .  A
C3117      C3118   1.407       .  A
C3117      H3121   1.077       .  S
C3118      O3122   1.372       .  S
O3120      H3124   0.992       .  S
O3122      H3123   0.992       .  S
C3125      C3126   1.401       .  A
C3125      C3130   1.407       .  A
C3126      C3127   1.404       .  A
C3126      H3131   1.084       .  S
C3127      C3128   1.419       .  A
C3127      O3132   1.372       .  S
C3128      C3129   1.412       .  A
C3129      C3130   1.400       .  A
C3129      H3133   1.076       .  S
C3130      O3134   1.373       .  S
O3132      H3136   0.992       .  S
O3134      H3135   0.992       .  S
C3137      C3138   1.409       .  A
C3137      C3142   1.416       .  A
C3138      C3139   1.403       .  A
C3138      H3143   1.077       .  S
C3139      C3140   1.414       .  A
C3139      O3144   1.372       .  S
C3140      C3141   1.404       .  A
C3141      C3142   1.397       .  A
C3141      H3145   1.083       .  S
C3142      O3146   1.373       .  S
O3144      H3148   0.992       .  S
O3146      H3147   0.992       .  S
C3149      C3150   1.404       .  A
C3149      C3154   1.409       .  A
C3150      C3151   1.405       .  A
C3150      H3155   1.084       .  S
C3151      C3152   1.419       .  A
C3151      O3156   1.371       .  S
C3152      C3153   1.411       .  A
C3153      C3154   1.397       .  A
C3153      H3157   1.078       .  S
C3154      O3158   1.372       .  S
O3156      H3160   0.992       .  S
O3158      H3159   0.992       .  S
C3161      C3162   1.412       .  A
C3161      C3166   1.418       .  A
C3162      C3163   1.398       .  A
C3162      H3167   1.075       .  S
C3163      C3164   1.405       .  A
C3163      O3168   1.373       .  S
C3164      C3165   1.401       .  A
C3165      C3166   1.404       .  A
C3165      H3169   1.084       .  S
C3166      O3170   1.372       .  S
O3168      H3172   0.992       .  S
O3170      H3171   0.992       .  S
C3173      C3174   1.402       .  A
C3173      C3178   1.408       .  A
C3174      C3175   1.402       .  A
C3174      H3179   1.084       .  S
C3175      C3176   1.418       .  A
C3175      O3180   1.372       .  S
C3176      C3177   1.410       .  A
C3177      C3178   1.397       .  A
C3177      H3181   1.076       .  S
C3178      O3182   1.373       .  S
O3180      H3184   0.992       .  S
O3182      H3183   0.992       .  S
