geometry optimzed in LAMMPS
_audit_creation_date              2020-12-01 
_audit_creation_method            'lammps2cif' 
_symmetry_space_group_name_H-M    'P1' 
_symmetry_Int_Tables_number       1 
_symmetry_cell_setting            triclinic 
loop_ 
_symmetry_equiv_pos_as_xyz 
  x,y,z 
_cell_length_a                    55.51531936 
_cell_length_b                    55.537959573973346 
_cell_length_c                    27.835563961705645 
_cell_angle_alpha                 90.4733666809527 
_cell_angle_beta                  89.22230215076385 
_cell_angle_gamma                 120.06618066011227 
loop_ 
_atom_site_label 
_atom_site_type_symbol 
_atom_site_fract_x 
_atom_site_fract_y 
_atom_site_fract_z 
_atom_site_charge 
C1          C  0.48293633  0.72413685  0.22212626     0.80800
N2          N  0.47898240  0.74293177  0.19771645    -0.77600
C3          C  0.48168832  0.76597468  0.21997492     0.83200
N4          N  0.48784569  0.76991448  0.26754593    -0.77500
C5          C  0.49125101  0.75094687  0.29274700     0.83300
N6          N  0.48909188  0.72823268  0.26968611    -0.79200
C7          C  0.48942551  0.72248506  0.71741682     0.80800
N8          N  0.48478377  0.74165660  0.73972666    -0.77600
C9          C  0.48549815  0.76280910  0.71444831     0.83200
N10         N  0.49053511  0.76451126  0.66633431    -0.77500
C11         C  0.49466930  0.74514629  0.64341777     0.83300
N12         N  0.49425674  0.72425559  0.66920184    -0.79200
C13         C  0.25127055  0.76609742  0.71435960     0.80800
N14         N  0.25192887  0.76845493  0.66580340    -0.77600
C15         C  0.23095143  0.74898734  0.63878101     0.83200
N16         N  0.20881302  0.72723242  0.66073751    -0.77500
C17         C  0.20791464  0.72457733  0.70931938     0.83300
N18         N  0.22936464  0.74394014  0.73602711    -0.79200
C19         C  0.25280403  0.76671626  0.21520927     0.80800
N20         N  0.23180541  0.74540301  0.19082153    -0.77600
C21         C  0.21009600  0.72443762  0.21482145     0.83200
N22         N  0.20968453  0.72463023  0.26338892    -0.77500
C23         C  0.23062873  0.74552480  0.28827061     0.83300
N24         N  0.25219955  0.76676501  0.26413115    -0.79200
C25         C  0.20301081  0.47437227  0.22400689     0.80800
N26         N  0.19971765  0.47081275  0.27245207    -0.77600
C27         C  0.21883450  0.46844137  0.29891329     0.83200
N28         N  0.24103051  0.46909715  0.27645402    -0.77500
C29         C  0.24459512  0.47265536  0.22816686     0.83300
N30         N  0.22567893  0.47560901  0.20208982    -0.79200
C31         C  0.21338811  0.48853370  0.71923714     0.80800
N32         N  0.23602277  0.49180872  0.74293566    -0.77600
C33         C  0.25544683  0.48785303  0.71996865     0.83200
N34         N  0.25230179  0.48084146  0.67268555    -0.77500
C35         C  0.22992801  0.47790487  0.64832576     0.83300
N36         N  0.21040666  0.48163898  0.67183966    -0.79200
C37         C  0.76292821  0.25926733  0.70859516     0.80800
N38         N  0.73968531  0.23936264  0.73103507    -0.77600
C39         C  0.72125455  0.21606902  0.70711214     0.83200
N40         N  0.72586051  0.21302302  0.65997530    -0.77500
C41         C  0.74887523  0.23315628  0.63695994     0.83300
N42         N  0.76744453  0.25607358  0.66156261    -0.79200
C43         C  0.76877111  0.24652511  0.21796788     0.80800
N44         N  0.74694790  0.22701573  0.19219337    -0.77600
C45         C  0.72668516  0.20384262  0.21441444     0.83200
N46         N  0.72800950  0.20066512  0.26242042    -0.77500
C47         C  0.74940596  0.22027608  0.28842458     0.83300
N48         N  0.76987140  0.24303794  0.26593554    -0.79200
C49         C  0.72595445  0.51872687  0.22654184     0.80800
N50         N  0.74588619  0.51671368  0.20061303    -0.77600
C51         C  0.76896691  0.51984990  0.22286573     0.83200
N52         N  0.77176989  0.52454009  0.27086980    -0.77500
C53         C  0.75188235  0.52601989  0.29717324     0.83300
N54         N  0.72903274  0.52326776  0.27481782    -0.79200
C55         C  0.72478745  0.51089468  0.72128247     0.80800
N56         N  0.72595936  0.51613350  0.67356530    -0.77600
C57         C  0.74905510  0.52235933  0.64722417     0.83200
N58         N  0.77139413  0.52361206  0.66906870    -0.77500
C59         C  0.77043382  0.51828217  0.71684828     0.83300
N60         N  0.74700328  0.51173966  0.74281081    -0.79200
C61         C  0.45329321  0.20763737  0.71542863     0.80800
N62         N  0.45611764  0.23047733  0.73889637    -0.77600
C63         C  0.45409875  0.25047760  0.71424094     0.83200
N64         N  0.44991274  0.24780466  0.66599468    -0.77500
C65         C  0.44763993  0.22529717  0.64237374     0.83300
N66         N  0.44904642  0.20524226  0.66739231    -0.79200
C67         C  0.46309230  0.21094610  0.22297531     0.80800
N68         N  0.46684542  0.23314463  0.19683454    -0.77600
C69         C  0.46568897  0.25449849  0.21856182     0.83200
N70         N  0.46111274  0.25374779  0.26661992    -0.77500
C71         C  0.45763458  0.23187238  0.29310684     0.83300
N72         N  0.45850150  0.21038572  0.27113454    -0.79200
O73         O  0.50869202  0.56411760  0.06917587    -0.74800
O74         O  0.47237044  0.55976033  0.02482242    -0.53700
C75         C  0.49072111  0.57134962  0.05791988     0.79000
O76         O  0.55395248  0.51372880  0.87182712    -0.59400
O77         O  0.55118417  0.47896815  0.91896789    -0.52400
C78         C  0.56176661  0.49642958  0.88416865     0.71000
O79         O  0.50770097  0.56087226  0.87160811    -0.73900
O80         O  0.47202566  0.55812046  0.91754293    -0.54500
C81         C  0.49001868  0.56853299  0.88310166     0.77000
O82         O  0.55721117  0.51777685  0.06663443    -0.59100
O83         O  0.55257280  0.48089819  0.02239895    -0.52200
C84         C  0.56491131  0.50021119  0.05385158     0.73600
Zr85       Zr  0.52167450  0.52957804  0.04376624     2.54700
O86         O  0.56579729  0.57319589  0.04166961    -0.79600
O87         O  0.52146287  0.52895725  0.13126921    -0.93000
Zr88       Zr  0.52141328  0.52821431  0.90057008     2.64700
O89         O  0.56474973  0.57256743  0.90507805    -0.98000
O90         O  0.52351746  0.52940897  0.81319535    -0.80100
O91         O  0.50875101  0.54313799  0.97202454    -0.83400
O92         O  0.53553723  0.51608987  0.97202367    -2.18100
O93         O  0.46391613  0.42554922  0.07292158    -0.66800
O94         O  0.49915284  0.42772871  0.02644108    -0.51400
C95         C  0.48102968  0.41729268  0.06057606     0.72000
O96         O  0.41623527  0.46963800  0.87543149    -0.59700
O97         O  0.41981927  0.50606252  0.91969192    -0.51700
C98         C  0.40870765  0.48745319  0.88660420     0.73800
O99         O  0.46010215  0.42039398  0.88055920    -0.71100
O100        O  0.49684577  0.42517025  0.92390059    -0.49800
C101        C  0.47744403  0.41266188  0.89286969     0.75100
O102        O  0.41345269  0.46884663  0.06894988    -0.66400
O103        O  0.41813064  0.50488790  0.02314733    -0.53600
C104        C  0.40570396  0.48604947  0.05547129     0.73500
Zr105      Zr  0.44984189  0.45827528  0.04580645     2.77500
O106        O  0.40687721  0.41343776  0.04468927    -0.97200
O107        O  0.44900991  0.45990373  0.13321174    -0.78000
Zr108      Zr  0.44976546  0.45672941  0.90276136     2.70100
O109        O  0.40465574  0.41425098  0.90546554    -0.79300
O110        O  0.45196962  0.45435546  0.81554195    -0.98300
Zr111      Zr  0.45909648  0.51985247  0.97257343     2.21500
Zr112      Zr  0.51208234  0.46648419  0.97305223     2.11100
O113        O  0.46246331  0.44341679  0.97454658    -2.47000
O114        O  0.43576380  0.47034945  0.97404795    -0.79100
O115        O  0.49918426  0.48029736  0.04582509    -0.71200
O116        O  0.47224574  0.50584732  0.90035767    -2.32200
O117        O  0.47229943  0.50745844  0.04542221    -2.28400
O118        O  0.49903940  0.47891337  0.90036821    -0.73000
H119        H  0.55551519  0.52396389  0.97121786     0.79000
H120        H  0.46627228  0.51140654  0.87222516     0.80100
H121        H  0.45437670  0.42344863  0.97538544     0.82300
H122        H  0.46607763  0.51361189  0.07302939     0.79900
H123        H  0.50390403  0.51788366  0.80318075     0.42900
H124        H  0.43249916  0.44158774  0.80586318     0.41900
H125        H  0.39654827  0.41495324  0.93698159     0.41600
H126        H  0.41260865  0.39971447  0.03586212     0.39500
H127        H  0.45723254  0.47987835  0.14119188     0.42700
H128        H  0.50354304  0.52747396  0.14095411     0.37400
H129        H  0.57417641  0.57311777  0.01008735     0.43600
H130        H  0.57962483  0.56768844  0.90371682     0.40000
H131        H  0.40112977  0.40952019  0.07888229     0.44900
H132        H  0.53572022  0.54809535  0.14052122     0.43600
H133        H  0.56619642  0.58161209  0.87381876     0.43800
H134        H  0.45602887  0.47288683  0.80426953     0.44100
O135        O  0.03356381  0.56393714  0.87871791    -0.74800
O136        O  0.06428988  0.55767230  0.92316024    -0.53700
C137        C  0.05846781  0.57039879  0.89092859     0.79000
O138        O  0.93328594  0.51063424  0.06617139    -0.59400
O139        O  0.90240006  0.47568093  0.01770372    -0.52400
C140        C  0.90841404  0.49342501  0.05178757     0.71000
O141        O  0.02745771  0.55803729  0.07389775    -0.73900
O142        O  0.06077893  0.55581730  0.02811379    -0.54500
C143        C  0.05292739  0.56623139  0.06216870     0.77000
O144        O  0.93886782  0.51690425  0.87300611    -0.59100
O145        O  0.90593805  0.47871001  0.91354155    -0.52200
C146        C  0.91341402  0.49842242  0.88287770     0.73600
Zr147      Zr  0.98540528  0.52912984  0.90138529     2.54700
O148        O  0.98400293  0.57168785  0.91587689    -0.79600
O149        O  0.98677799  0.53441472  0.81438271    -0.93000
Zr150      Zr  0.98137082  0.52430751  0.04398239     2.64700
O151        O  0.98108096  0.56800264  0.04265392    -0.98000
O152        O  0.98036625  0.52180560  0.13134001    -0.80100
O153        O  0.01052988  0.54059696  0.97448173    -0.83400
O154        O  0.95652635  0.51359705  0.97095334    -2.18100
O155        O  0.93906240  0.42412001  0.86535355    -0.66800
O156        O  0.90550505  0.42604801  0.91061370    -0.51400
C157        C  0.91351673  0.41597768  0.87630692     0.72000
O158        O  0.02691811  0.46288534  0.06448002    -0.59700
O159        O  0.06080023  0.50101943  0.02509320    -0.51700
C160        C  0.05253641  0.48090752  0.05546581     0.73800
O161        O  0.93363887  0.41845830  0.06136968    -0.71100
O162        O  0.90271738  0.42360820  0.01565835    -0.49800
C163        C  0.90877973  0.41135111  0.04829718     0.75100
O164        O  0.03255858  0.47116274  0.87082204    -0.66400
O165        O  0.06406465  0.50562462  0.91933488    -0.53600
C166        C  0.05754151  0.48848523  0.88398768     0.73500
Zr167      Zr  0.98516069  0.45741669  0.89526558     2.77500
O168        O  0.98579768  0.41389700  0.89212853    -0.97200
O169        O  0.98762418  0.46241144  0.80829778    -0.78000
Zr170      Zr  0.98116060  0.45287116  0.03815890     2.70100
O171        O  0.97869696  0.40793151  0.03298221    -0.79300
O172        O  0.98111294  0.45352821  0.12562557    -0.98300
Zr173      Zr  0.03666102  0.51715409  0.97310216     2.21500
Zr174      Zr  0.93035841  0.46412039  0.96617147     2.11100
O175        O  0.95646998  0.44087434  0.96489520    -2.47000
O176        O  0.01010938  0.46773483  0.96835302    -0.79100
O177        O  0.95843581  0.47984481  0.89545494    -0.71200
O178        O  0.00820122  0.50193022  0.04355997    -2.32200
O179        O  0.01201245  0.50650048  0.89929164    -2.28400
O180        O  0.95420779  0.47508416  0.04052911    -0.73000
H181        H  0.94441704  0.52141344  0.97135798     0.79000
H182        H  0.01941220  0.50699028  0.07213063     0.80100
H183        H  0.94440866  0.42095787  0.96301459     0.82300
H184        H  0.02461370  0.51325895  0.87206551     0.79900
H185        H  0.96938003  0.53051197  0.14186373     0.42900
H186        H  0.96508325  0.45582495  0.13480596     0.41900
H187        H  0.97875113  0.40436473  0.99809722     0.41600
H188        H  0.96843882  0.40022566  0.90875972     0.39500
H189        H  0.97866195  0.47359807  0.80175541     0.42700
H190        H  0.00486480  0.53661109  0.80376807     0.37400
H191        H  0.99743394  0.58518936  0.89240406     0.43600
H192        H  0.98120951  0.57296151  0.07693331     0.40000
H193        H  0.98260918  0.40827097  0.85791040     0.44900
H194        H  0.98871190  0.55293845  0.80936904     0.43600
H195        H  0.99975308  0.58185480  0.03027868     0.43800
H196        H  0.97539710  0.43421332  0.13496274     0.44100
O197        O  0.50286414  0.94559954  0.85804687    -0.74800
O198        O  0.46805660  0.91410554  0.90672152    -0.53700
C199        C  0.48531032  0.92054691  0.87126789     0.79000
O200        O  0.55748853  0.04213571  0.04905934    -0.59400
O201        O  0.55241404  0.07437343  0.00686995    -0.52400
C202        C  0.56488989  0.06737698  0.03733928     0.71000
O203        O  0.50825322  0.94739532  0.05460633    -0.73900
O204        O  0.47042720  0.91493223  0.01324850    -0.54500
C205        C  0.48967357  0.92207805  0.04473464     0.77000
O206        O  0.55180950  0.03916419  0.85767216    -0.59100
O207        O  0.54961927  0.07265930  0.90232516    -0.52200
C208        C  0.56007336  0.06464616  0.86855296     0.73600
Zr209      Zr  0.51757391  0.99295209  0.88545918     2.54700
O210        O  0.56047889  0.99112148  0.88670409    -0.79600
O211        O  0.51867404  0.99522043  0.79812053    -0.93000
Zr212      Zr  0.52190382  0.99452119  0.02771248     2.64700
O213        O  0.56484625  0.99291496  0.01927011    -0.98000
O214        O  0.52452138  0.99667489  0.11499649    -0.80100
O215        O  0.50631300  0.96656437  0.95722978    -0.83400
O216        O  0.53420516  0.02071181  0.95563988    -2.18100
O217        O  0.45770879  0.04232587  0.87399994    -0.66800
O218        O  0.49670594  0.07436422  0.91303636    -0.51400
C219        C  0.47608186  0.06751114  0.88499359     0.72000
O220        O  0.41692474  0.94969509  0.06504681    -0.59700
O221        O  0.41790743  0.91663510  0.01701233    -0.51700
C222        C  0.40805621  0.92429211  0.05231073     0.73800
O223        O  0.46405460  0.04370022  0.05967107    -0.71100
O224        O  0.50023924  0.07500629  0.01297531    -0.49800
C225        C  0.48179534  0.06868154  0.04627632     0.75100
O226        O  0.41206161  0.94870726  0.86781517    -0.66400
O227        O  0.41619073  0.91610889  0.91082168    -0.53600
C228        C  0.40447482  0.92339745  0.87891863     0.73500
Zr229      Zr  0.44705627  0.99516302  0.89420886     2.77500
O230        O  0.40280376  0.99379984  0.90545942    -0.97200
O231        O  0.44759531  0.99915162  0.80714052    -0.78000
Zr232      Zr  0.45143900  0.99610621  0.03698192     2.70100
O233        O  0.40712616  0.99503781  0.04225013    -0.79300
O234        O  0.45741197  0.99796192  0.12368186    -0.98300
Zr235      Zr  0.45673850  0.94121440  0.96173197     2.21500
Zr236      Zr  0.51171971  0.04773246  0.95919640     2.11100
O237        O  0.46232587  0.02221427  0.96510649    -2.47000
O238        O  0.43478051  0.96864029  0.96614760    -0.79100
O239        O  0.49625792  0.02092322  0.88760514    -0.71200
O240        O  0.47269612  0.96835984  0.03334608    -2.32200
O241        O  0.46837590  0.96733032  0.88905607    -2.28400
O242        O  0.50070039  0.02243787  0.03253541    -0.73000
H243        H  0.55417473  0.03248968  0.95347889     0.79000
H244        H  0.46723809  0.95666921  0.06151482     0.80100
H245        H  0.45456098  0.03434592  0.96688899     0.82300
H246        H  0.46154796  0.95534243  0.86126181     0.79900
H247        H  0.54198020  0.99677243  0.12225446     0.42900
H248        H  0.47532757  0.01523894  0.12938521     0.41900
H249        H  0.40407297  0.99633288  0.07707612     0.41600
H250        H  0.39474816  0.99047642  0.87291737     0.39500
H251        H  0.42996371  0.99865106  0.79968097     0.42700
H252        H  0.49954064  0.98140665  0.78827499     0.37400
H253        H  0.55574674  0.97423016  0.90550788     0.43600
H254        H  0.55877891  0.97338360  0.01057833     0.40000
H255        H  0.39084968  0.97625149  0.92303659     0.44900
H256        H  0.53018907  0.98702632  0.78794648     0.43600
H257        H  0.57381475  0.00356950  0.98964237     0.43800
H258        H  0.44311902  0.00198882  0.13672907     0.44100
C259        C  0.47918034  0.31393776  0.13345032     0.16500
C260        C  0.48621599  0.33266059  0.09524573    -0.32600
C261        C  0.48185411  0.35526121  0.10195174     0.20900
C262        C  0.47078274  0.35888092  0.14457222     0.03100
C263        C  0.46409486  0.34041128  0.18282129    -0.22300
C264        C  0.46860335  0.31799657  0.17624225     0.12200
S265        S  0.48228617  0.28485693  0.13256642    -0.05900
C266        C  0.46946807  0.27843662  0.19061614    -0.09400
C267        C  0.46315522  0.29782380  0.20921574    -0.26000
S268        S  0.46588772  0.38676223  0.14525605    -0.03200
C269        C  0.47933537  0.39402034  0.08777065    -0.16700
C270        C  0.48708372  0.37562183  0.06918035    -0.14700
H271        H  0.49454051  0.32966367  0.06176399     0.20700
H272        H  0.45553542  0.34326664  0.21615863     0.16800
H273        H  0.45478083  0.29708305  0.24490463     0.19300
H274        H  0.49542260  0.37671831  0.03334069     0.12600
C275        C  0.46295560  0.14563779  0.17712476     0.16500
C276        C  0.46044786  0.11941972  0.17127447    -0.32600
C277        C  0.46974609  0.11396810  0.12769239     0.20900
C278        C  0.48125571  0.13379513  0.09162881     0.03100
C279        C  0.48333067  0.15986274  0.09715162    -0.22300
C280        C  0.47385480  0.16523315  0.14063893     0.12200
S281        S  0.45369469  0.15658907  0.22788311    -0.05900
C282        C  0.46431756  0.18780560  0.19942614    -0.09400
C283        C  0.47444050  0.18940463  0.15306692    -0.26000
S284        S  0.49212530  0.12339087  0.04210127    -0.03200
C285        C  0.48048954  0.09177502  0.06992943    -0.16700
C286        C  0.46900312  0.08970600  0.11525182    -0.14700
H287        H  0.45179832  0.10400748  0.19957051     0.20700
H288        H  0.49211748  0.17533746  0.06896190     0.16800
H289        H  0.48225173  0.20745483  0.12998727     0.19300
H290        H  0.46069100  0.07146641  0.13796336     0.12600
C291        C  0.44959615  0.24247736  0.42730555     0.16500
C292        C  0.44848449  0.25280842  0.47290741    -0.32600
C293        C  0.44604947  0.23643750  0.51279109     0.20900
C294        C  0.44440373  0.21080411  0.50733743     0.03100
C295        C  0.44512513  0.20034134  0.46181046    -0.22300
C296        C  0.44795029  0.21683574  0.42207775     0.12200
S297        S  0.45400587  0.25970226  0.37461251    -0.05900
C298        C  0.45366299  0.23204165  0.34534993    -0.09400
C299        C  0.45021923  0.21069503  0.37514237    -0.26000
S300        S  0.44307067  0.19470656  0.55982207    -0.03200
C301        C  0.44505182  0.22289006  0.58979436    -0.16700
C302        C  0.44624524  0.24345294  0.56020871    -0.14700
H303        H  0.45012301  0.27297600  0.47715460     0.20700
H304        H  0.44421919  0.18050026  0.45761420     0.16800
H305        H  0.44980272  0.19187783  0.36321408     0.19300
H306        H  0.44813180  0.26285002  0.57263853     0.12600
C307        C  0.47572505  0.34659635  0.84651519     0.16500
C308        C  0.47900209  0.32340617  0.83895991    -0.32600
C309        C  0.46735016  0.30749905  0.79739655     0.20900
C310        C  0.45322766  0.31449334  0.76469863     0.03100
C311        C  0.44948827  0.33733989  0.77271153    -0.22300
C312        C  0.46101741  0.35313852  0.81433439     0.12200
S313        S  0.48918960  0.36916237  0.89369926    -0.05900
C314        C  0.47463382  0.38744688  0.86998670    -0.09400
C315        C  0.46003331  0.37637280  0.82789836    -0.26000
S316        S  0.44182116  0.29346958  0.71537737    -0.03200
C317        C  0.45578655  0.27469639  0.73932877    -0.16700
C318        C  0.46860089  0.28441774  0.78329385    -0.14700
H319        H  0.49039805  0.31818219  0.86407784     0.20700
H320        H  0.43837630  0.34276696  0.74731011     0.16800
H321        H  0.44967356  0.38514149  0.80783728     0.19300
H322        H  0.47871942  0.27540734  0.80336428     0.12600
C323        C  0.47413688  0.13245057  0.84453094     0.16500
C324        C  0.47767741  0.15911127  0.83837738    -0.32600
C325        C  0.46543592  0.16350231  0.79804798     0.20900
C326        C  0.45042060  0.14227190  0.76547740     0.03100
C327        C  0.44616489  0.11550890  0.77245363    -0.22300
C328        C  0.45836172  0.11113972  0.81258300     0.12200
S329        S  0.48879129  0.12316991  0.88901568    -0.05900
C330        C  0.47308054  0.09017129  0.86451033    -0.09400
C331        C  0.45734631  0.08677394  0.82422747    -0.26000
S332        S  0.43903586  0.15200130  0.71697121    -0.03200
C333        C  0.45406846  0.18498989  0.74105846    -0.16700
C334        C  0.46726548  0.18811475  0.78453679    -0.14700
H335        H  0.48993720  0.17581428  0.86324844     0.20700
H336        H  0.43440676  0.09895251  0.74702381     0.16800
H337        H  0.44625891  0.06763730  0.80387648     0.19300
H338        H  0.47825426  0.20745777  0.80433612     0.12600
C339        C  0.66487819  0.49690397  0.80823494     0.16500
C340        C  0.64748584  0.49260280  0.84812856    -0.32600
C341        C  0.62350657  0.49449327  0.84095067     0.20900
C342        C  0.61712596  0.50034975  0.79608076     0.03100
C343        C  0.63414483  0.50401323  0.75609414    -0.22300
C344        C  0.65812591  0.50226835  0.76332839     0.12200
S345        S  0.69590542  0.49740756  0.80973503    -0.05900
C346        C  0.69974521  0.50501970  0.74923759    -0.09400
C347        C  0.67786719  0.50665422  0.72932899    -0.26000
S348        S  0.58821156  0.50364053  0.79522519    -0.03200
C349        C  0.58437479  0.49665622  0.85584720    -0.16700
C350        C  0.60450041  0.49197658  0.87540810    -0.14700
H351        H  0.65273155  0.48860507  0.88337065     0.20700
H352        H  0.62928472  0.50872751  0.72108493     0.16800
H353        H  0.67683390  0.51165371  0.69215399     0.19300
H354        H  0.60559487  0.48779058  0.91301174     0.12600
C355        C  0.84763683  0.49593916  0.83563132     0.16500
C356        C  0.82056177  0.49091363  0.82913409    -0.32600
C357        C  0.81624483  0.50511180  0.79201344     0.20900
C358        C  0.83783655  0.52326031  0.76207356     0.03100
C359        C  0.86511748  0.52865402  0.76906590    -0.22300
C360        C  0.86951382  0.51465519  0.80675257     0.12200
S361        S  0.85680005  0.48052291  0.87862328    -0.05900
C362        C  0.89075060  0.49993731  0.85861698    -0.09400
C363        C  0.89446516  0.51719499  0.81998276    -0.26000
S364        S  0.82772893  0.53707535  0.71731147    -0.03200
C365        C  0.79421959  0.51848187  0.73983416    -0.16700
C366        C  0.79128955  0.50262257  0.77991932    -0.14700
H367        H  0.80354899  0.47645609  0.85196753     0.20700
H368        H  0.88209376  0.54298188  0.74604717     0.16800
H369        H  0.91428077  0.53088708  0.80272389     0.17800
H370        H  0.77175448  0.48925586  0.79829671     0.12600
C371        C  0.66138960  0.51955710  0.18060515     0.16500
C372        C  0.63819865  0.52293495  0.17502207    -0.32600
C373        C  0.62328956  0.51348783  0.13216626     0.20900
C374        C  0.63104782  0.50107389  0.09645651     0.03100
C375        C  0.65450902  0.49801144  0.10176410    -0.22300
C376        C  0.66950800  0.50758763  0.14465622     0.12200
S377        S  0.68165032  0.52909850  0.23049357    -0.05900
C378        C  0.70156186  0.51709222  0.20275859    -0.09400
C379        C  0.69276116  0.50632418  0.15699337    -0.26000
S380        S  0.60954539  0.49007662  0.04796495    -0.03200
C381        C  0.59000720  0.50252042  0.07597503    -0.16700
C382        C  0.59995569  0.51466209  0.12041749    -0.14700
H383        H  0.63191502  0.53233612  0.20307887     0.20700
H384        H  0.66065199  0.48838903  0.07388448     0.16800
H385        H  0.70262394  0.49775883  0.13426659     0.19300
H386        H  0.59033159  0.52340981  0.14329790     0.12600
C387        C  0.76886149  0.53329768  0.43162482     0.16500
C388        C  0.78012159  0.53401371  0.47675484    -0.32600
C389        C  0.76374273  0.53117228  0.51743492     0.20900
C390        C  0.73758323  0.52836839  0.51337073     0.03100
C391        C  0.72636055  0.52771736  0.46826783    -0.22300
C392        C  0.74247544  0.52993763  0.42754985     0.12200
S393        S  0.78469825  0.53466793  0.37800613    -0.05900
C394        C  0.75513858  0.52983689  0.34966453    -0.09400
C395        C  0.73449227  0.52800783  0.38057751    -0.26000
S396        S  0.72073379  0.52463626  0.56680319    -0.03200
C397        C  0.74899475  0.52632993  0.59502487    -0.16700
C398        C  0.77042097  0.52997649  0.56427490    -0.14700
H399        H  0.80047066  0.53602336  0.47996389     0.20700
H400        H  0.70569379  0.52492314  0.46503953     0.16800
H401        H  0.71437650  0.52451213  0.36940188     0.19300
H402        H  0.78954855  0.53105136  0.57544967     0.12600
C403        C  0.84254144  0.49318527  0.09646949     0.16500
C404        C  0.81608487  0.49041334  0.10227262    -0.32600
C405        C  0.81208644  0.50434735  0.14120708     0.20900
C406        C  0.83345880  0.52008772  0.17287913     0.03100
C407        C  0.85981864  0.52303806  0.16680959    -0.22300
C408        C  0.86384410  0.50931870  0.12796246     0.12200
S409        S  0.85199347  0.47831988  0.05157686    -0.05900
C410        C  0.88509463  0.49459301  0.07514485    -0.09400
C411        C  0.88822991  0.51020593  0.11598630    -0.26000
S412        S  0.82446643  0.53411549  0.21932054    -0.03200
C413        C  0.79140546  0.51868467  0.19626292    -0.16700
C414        C  0.78781070  0.50378429  0.15411088    -0.14700
H415        H  0.79938940  0.47790102  0.07773006     0.20700
H416        H  0.87646651  0.53539300  0.19154371     0.16800
H417        H  0.90747298  0.52198279  0.13548498     0.19300
H418        H  0.76831417  0.49225916  0.13524543     0.12600
C419        C  0.66378024  0.14019567  0.16137879     0.16500
C420        C  0.64100702  0.11375697  0.15334671    -0.32600
C421        C  0.62439429  0.11033019  0.11379754     0.20900
C422        C  0.63006135  0.13224391  0.08335991     0.03100
C423        C  0.65311676  0.15880933  0.09113813    -0.22300
C424        C  0.66987145  0.16222504  0.13089906     0.12200
S425        S  0.68554620  0.14838789  0.20869180    -0.05900
C426        C  0.70330907  0.18195495  0.18751039    -0.09400
C427        C  0.69289984  0.18637978  0.14550970    -0.26000
S428        S  0.60681327  0.12352137  0.03781440    -0.03200
C429        C  0.58965987  0.09001339  0.06008113    -0.16700
C430        C  0.60135792  0.08610326  0.10060103    -0.14700
H431        H  0.63629434  0.09660279  0.17720147     0.20700
H432        H  0.65765984  0.17601925  0.06754470     0.16800
H433        H  0.70118049  0.20626169  0.12761795     0.19300
H434        H  0.59337174  0.06656341  0.11954788     0.12600
C435        C  0.84296629  0.34675204  0.09449799     0.16500
C436        C  0.81663608  0.32303300  0.10009792    -0.32600
C437        C  0.81223652  0.30620014  0.14027655     0.20900
C438        C  0.83290408  0.31307225  0.17394759     0.03100
C439        C  0.85927282  0.33658075  0.16808786    -0.22300
C440        C  0.86386648  0.35301778  0.12737757     0.12200
S441        S  0.85270839  0.36959599  0.04782266    -0.05900
C442        C  0.88554804  0.38717862  0.07204276    -0.09400
C443        C  0.88840283  0.37608466  0.11454209    -0.26000
S444        S  0.82323590  0.29074942  0.22120028    -0.03200
C445        C  0.79117232  0.27152887  0.19485605    -0.16700
C446        C  0.78825902  0.28207584  0.15177054    -0.14700
H447        H  0.80039221  0.31781899  0.07411640     0.20700
H448        H  0.87555824  0.34172069  0.19395534     0.16800
H449        H  0.90747070  0.38433047  0.13477025     0.19300
H450        H  0.76948413  0.27291931  0.13059601     0.12600
C451        C  0.65921741  0.16821909  0.78735213     0.16500
C452        C  0.63902812  0.15682186  0.82378773    -0.32600
C453        C  0.61948974  0.12843925  0.82102255     0.20900
C454        C  0.62009640  0.11199879  0.78377038     0.03100
C455        C  0.64023237  0.12344651  0.74700517    -0.22300
C456        C  0.65970774  0.15198570  0.74961899     0.12200
S457        S  0.68492220  0.20212571  0.78520120    -0.05900
C458        C  0.69645473  0.19463730  0.73257097    -0.09400
C459        C  0.68100894  0.16713969  0.71767030    -0.26000
S460        S  0.59493873  0.07784208  0.78785031    -0.03200
C461        C  0.58340453  0.08593234  0.84006319    -0.16700
C462        C  0.59840196  0.11366180  0.85329659    -0.14700
H463        H  0.63864782  0.16953039  0.85317662     0.20700
H464        H  0.64075279  0.11068059  0.71784009     0.16800
H465        H  0.68541598  0.15864413  0.68578361     0.19300
H466        H  0.59439095  0.12245773  0.88520188     0.12600
C467        C  0.76754124  0.23823922  0.50283821     0.16500
C468        C  0.77937318  0.24658750  0.45687148    -0.32600
C469        C  0.76348250  0.23101258  0.41759087     0.20900
C470        C  0.73718176  0.20798155  0.42385056     0.03100
C471        C  0.72551795  0.19948413  0.46976554    -0.22300
C472        C  0.74123755  0.21519420  0.50894264     0.12200
S473        S  0.78257872  0.25526571  0.55491708    -0.05900
C474        C  0.75304311  0.23106749  0.58513641    -0.09400
C475        C  0.73287746  0.21087511  0.55607134    -0.26000
S476        S  0.72060505  0.19267552  0.37177297    -0.03200
C477        C  0.74922019  0.21778821  0.34100228    -0.16700
C478        C  0.77058683  0.23668425  0.37001322    -0.14700
H479        H  0.79973955  0.26479882  0.45187171     0.20700
H480        H  0.70480615  0.18177731  0.47466919     0.16800
H481        H  0.71279741  0.19440334  0.56854626     0.19300
H482        H  0.78987000  0.25416216  0.35701857     0.12600
C483        C  0.80922342  0.31969311  0.79223884     0.16500
C484        C  0.82075419  0.33859803  0.83030223    -0.32600
C485        C  0.84911353  0.35855155  0.82713959     0.20900
C486        C  0.86527097  0.35968445  0.78782182     0.03100
C487        C  0.85361996  0.34114301  0.74934089    -0.22300
C488        C  0.82528719  0.32116936  0.75255000     0.12200
S489        S  0.77564956  0.29294401  0.79043787    -0.05900
C490        C  0.78330093  0.28383211  0.73540314    -0.09400
C491        C  0.81043768  0.30081328  0.71955407    -0.26000
S492        S  0.89953242  0.38448149  0.79187420    -0.03200
C493        C  0.89200178  0.39360154  0.84699466    -0.16700
C494        C  0.86429806  0.37817012  0.86107303    -0.14700
H495        H  0.80830231  0.33747811  0.86140314     0.20700
H496        H  0.86619372  0.34192848  0.71864893     0.16800
H497        H  0.81904889  0.29795175  0.68628144     0.19300
H498        H  0.85584003  0.38080813  0.89471010     0.12600
C499        C  0.31462405  0.49919934  0.80341898     0.16500
C500        C  0.33324470  0.50582824  0.84140467    -0.32600
C501        C  0.35202272  0.49593090  0.83877724     0.20900
C502        C  0.35217896  0.48006599  0.80015334     0.03100
C503        C  0.33396813  0.47394129  0.76172340    -0.22300
C504        C  0.31526869  0.48390667  0.76427203     0.12200
S505        S  0.28915719  0.50779158  0.80111921    -0.05900
C506        C  0.27947672  0.49083436  0.74659341    -0.09400
C507        C  0.29538367  0.47936378  0.73119771    -0.26000
S508        S  0.37577181  0.46910663  0.80450864    -0.03200
C509        C  0.38601473  0.48658208  0.85851830    -0.16700
C510        C  0.37156789  0.49993323  0.87227963    -0.14700
H511        H  0.33284498  0.51782071  0.87196717     0.20700
H512        H  0.33410593  0.46161982  0.73147444     0.16800
H513        H  0.29201236  0.46757943  0.69831580     0.19300
H514        H  0.37505830  0.51176868  0.90513177     0.12600
C515        C  0.16440209  0.49964125  0.80276957     0.16500
C516        C  0.15167992  0.50547623  0.84136932    -0.32600
C517        C  0.12351717  0.49738670  0.83700019     0.20900
C518        C  0.10871066  0.48412087  0.79600958     0.03100
C519        C  0.12156593  0.47877716  0.75706853    -0.22300
C520        C  0.14970298  0.48681611  0.76146693     0.12200
S521        S  0.19788887  0.50632035  0.80216207    -0.05900
C522        C  0.19210347  0.49188025  0.74547929    -0.09400
C523        C  0.16558143  0.48254887  0.72820380    -0.26000
S524        S  0.07443906  0.47466834  0.79855254    -0.03200
C525        C  0.08010393  0.48886296  0.85537681    -0.16700
C526        C  0.10725197  0.50047275  0.87110478    -0.14700
H527        H  0.16308319  0.51540086  0.87371481     0.20700
H528        H  0.11001018  0.46834986  0.72511186     0.16800
H529        H  0.15808359  0.47246793  0.69378362     0.19300
H530        H  0.11453358  0.51010907  0.90590215     0.12600
C531        C  0.23528818  0.46585036  0.51360592     0.16500
C532        C  0.24464800  0.46433820  0.46729961    -0.32600
C533        C  0.22897864  0.46451483  0.42836398     0.20900
C534        C  0.20464055  0.46538591  0.43514994     0.03100
C535        C  0.19513992  0.46666987  0.48154876    -0.22300
C536        C  0.21124157  0.46726737  0.52049169     0.12200
S537        S  0.25256539  0.46807027  0.56514626    -0.05900
C538        C  0.22761715  0.47180643  0.59639190    -0.09400
C539        C  0.20666747  0.47060541  0.56801410    -0.26000
S540        S  0.18915785  0.46628788  0.38304651    -0.03200
C541        C  0.21607388  0.46605272  0.35176730    -0.16700
C542        C  0.23564752  0.46491136  0.38069473    -0.14700
H543        H  0.26378042  0.46391073  0.46181064     0.20700
H544        H  0.17649690  0.46801332  0.48698824     0.16800
H545        H  0.18956420  0.47304230  0.58119570     0.19300
H546        H  0.25416383  0.46502153  0.36759921     0.12600
C547        C  0.34034437  0.48713022  0.09942088     0.16500
C548        C  0.31771916  0.49154104  0.10520467    -0.32600
C549        C  0.30160884  0.48159824  0.14731493     0.20900
C550        C  0.30780843  0.46791559  0.18222096     0.03100
C551        C  0.33025333  0.46317759  0.17616337    -0.22300
C552        C  0.34635104  0.47309745  0.13394555     0.12200
S553        S  0.36282509  0.49844378  0.05158831    -0.05900
C554        C  0.38058150  0.48407330  0.07806685    -0.09400
C555        C  0.36932093  0.47102863  0.12168443    -0.26000
S556        S  0.28631971  0.45834870  0.23145753    -0.03200
C557        C  0.26860767  0.47270495  0.20459653    -0.16700
C558        C  0.27898842  0.48420084  0.15973758    -0.14700
H559        H  0.31304600  0.50250259  0.07823432     0.20700
H560        H  0.33511805  0.45248889  0.20337560     0.16800
H561        H  0.37777192  0.46105524  0.14360935     0.19300
H562        H  0.27072172  0.49432306  0.13775467     0.12600
C563        C  0.15561376  0.48451812  0.13659123     0.16500
C564        C  0.14420589  0.49169612  0.09835785    -0.32600
C565        C  0.11597905  0.48397084  0.10163182     0.20900
C566        C  0.09969345  0.46923910  0.14081666     0.03100
C567        C  0.11117963  0.46239314  0.17935344    -0.22300
C568        C  0.13954304  0.47061214  0.17648569     0.12200
S569        S  0.18933488  0.49171969  0.13923124    -0.05900
C570        C  0.18196881  0.47651244  0.19527871    -0.09400
C571        C  0.15462322  0.46623880  0.21052312    -0.26000
S572        S  0.06572952  0.46101484  0.13729586    -0.03200
C573        C  0.07365394  0.47829351  0.08303338    -0.16700
C574        C  0.10122213  0.48949246  0.06855527    -0.14700
H575        H  0.15680629  0.50287812  0.06744961     0.20700
H576        H  0.09857566  0.45121468  0.21027033     0.16800
H577        H  0.14613354  0.45578727  0.24443682     0.19300
H578        H  0.10993864  0.50087968  0.03547702     0.12600
C579        C  0.10450466  0.62253731  0.14755732     0.16500
C580        C  0.11887273  0.63962435  0.18663829    -0.32600
C581        C  0.14554264  0.66236996  0.17764188     0.20900
C582        C  0.15721216  0.66800329  0.13184388     0.03100
C583        C  0.14312758  0.65063052  0.09316214    -0.22300
C584        C  0.11670201  0.62776257  0.10217740     0.12200
S585        S  0.07158760  0.59439289  0.15005352    -0.05900
C586        C  0.07482985  0.58930963  0.08966455    -0.09400
C587        C  0.09995393  0.60856796  0.06903351    -0.26000
S588        S  0.18923640  0.69708512  0.12769018    -0.03200
C589        C  0.18731475  0.70145897  0.18855583    -0.16700
C590        C  0.16288605  0.68143417  0.21055576    -0.14700
H591        H  0.10964262  0.63549074  0.22230501     0.20700
H592        H  0.15232968  0.65482692  0.05747743     0.16800
H593        H  0.10549560  0.60872928  0.03152266     0.19300
H594        H  0.15803913  0.68092656  0.24849299     0.12600
C595        C  0.35122187  0.87368028  0.13956243     0.16500
C596        C  0.33342832  0.86032223  0.17884327    -0.32600
C597        C  0.31274581  0.83233491  0.17306724     0.20900
C598        C  0.30968460  0.81848468  0.12989161     0.03100
C599        C  0.32764124  0.83170882  0.09095818    -0.22300
C600        C  0.34852345  0.85947506  0.09694065     0.12200
S601        S  0.37743655  0.90760827  0.13873104    -0.05900
C602        C  0.38507016  0.90234288  0.08065361    -0.09400
C603        C  0.36803394  0.87569168  0.06323634    -0.26000
S604        S  0.28287624  0.78499175  0.12924031    -0.03200
C605        C  0.27597387  0.78931199  0.18819527    -0.16700
C606        C  0.29355632  0.81555874  0.20696204    -0.14700
H607        H  0.33560525  0.87123804  0.21235675     0.20700
H608        H  0.32541778  0.82081545  0.05739895     0.16800
H609        H  0.36965238  0.86863160  0.02757872     0.19300
H610        H  0.29213183  0.82209271  0.24314389     0.12600
C611        C  0.12673912  0.63096261  0.83998211     0.16500
C612        C  0.15418866  0.65248856  0.83232285    -0.32600
C613        C  0.16009388  0.66811510  0.79004466     0.20900
C614        C  0.13976589  0.66209133  0.75611918     0.03100
C615        C  0.11222745  0.64060316  0.76388168    -0.22300
C616        C  0.10613971  0.62544446  0.80689352     0.12200
S617        S  0.11541775  0.60991875  0.88933050    -0.05900
C618        C  0.08230040  0.59386231  0.86603444    -0.09400
C619        C  0.08050706  0.60430679  0.82183589    -0.26000
S620        S  0.15144140  0.68317060  0.70667649    -0.03200
C621        C  0.18385705  0.70073876  0.73267340    -0.16700
C622        C  0.18532406  0.69043470  0.77705413    -0.14700
H623        H  0.17019823  0.65706460  0.85847682     0.20700
H624        H  0.09620266  0.63610293  0.73780489     0.16800
H625        H  0.06154779  0.59663534  0.80149420     0.19300
H626        H  0.20395376  0.69868402  0.79848669     0.12600
C627        C  0.24542371  0.76307927  0.50364690     0.16500
C628        C  0.25669596  0.77352882  0.45804563    -0.32600
C629        C  0.24178356  0.75800724  0.41800099     0.20900
C630        C  0.21676915  0.73324987  0.42325589     0.03100
C631        C  0.20548929  0.72286446  0.46873300    -0.22300
C632        C  0.22039569  0.73833342  0.50869523     0.12200
S633        S  0.26047171  0.77845411  0.55672994    -0.05900
C634        C  0.23272884  0.75123510  0.58602223    -0.09400
C635        C  0.21296706  0.73144108  0.55583280    -0.26000
S636        S  0.20173794  0.71744047  0.37068347    -0.03200
C637        C  0.22931662  0.74452851  0.34098756    -0.16700
C638        C  0.24919196  0.76460905  0.37066576    -0.14700
H639        H  0.27624558  0.79282839  0.45398089     0.20700
H640        H  0.18597528  0.70351877  0.47278018     0.16800
H641        H  0.19431614  0.71283674  0.56769751     0.19300
H642        H  0.26787040  0.78303380  0.35834706     0.12600
C643        C  0.30834797  0.81608714  0.80065989     0.16500
C644        C  0.32705282  0.82891887  0.83848400    -0.32600
C645        C  0.34613328  0.85754473  0.83464750     0.20900
C646        C  0.34634413  0.87277100  0.79524376     0.03100
C647        C  0.32799729  0.85987326  0.75713948    -0.22300
C648        C  0.30921235  0.83123486  0.76067013     0.12200
S649        S  0.28300927  0.78175822  0.79874662    -0.05900
C650        C  0.27398549  0.78784569  0.74301350    -0.09400
C651        C  0.28983312  0.81508243  0.72725354    -0.26000
S652        S  0.37051577  0.90735161  0.79785258    -0.03200
C653        C  0.38099863  0.90121613  0.85216648    -0.16700
C654        C  0.36615964  0.87373712  0.86729660    -0.14700
H655        H  0.32670454  0.81714536  0.86956343     0.20700
H656        H  0.32831844  0.87165990  0.72609430     0.16800
H657        H  0.28697403  0.82277895  0.69342398     0.19300
H658        H  0.36981302  0.86604146  0.90043095     0.12600
C659        C  0.48257802  0.66581699  0.80386468     0.16500
C660        C  0.47729998  0.64799905  0.84283596    -0.32600
C661        C  0.48390566  0.62687758  0.83721654     0.20900
C662        C  0.49560295  0.62380822  0.79491445     0.03100
C663        C  0.50029540  0.64124301  0.75550785    -0.22300
C664        C  0.49339670  0.66221269  0.76097040     0.12200
S665        S  0.47679617  0.69321590  0.80411949    -0.05900
C666        C  0.48845727  0.69958278  0.74536483    -0.09400
C667        C  0.49656778  0.68138143  0.72704956    -0.26000
S668        S  0.50362234  0.59790206  0.79641738    -0.03200
C669        C  0.49040706  0.59073673  0.85423194    -0.16700
C670        C  0.48049008  0.60768842  0.87114628    -0.14700
H671        H  0.46863926  0.65062994  0.87623417     0.20700
H672        H  0.50917560  0.63875261  0.72225451     0.16800
H673        H  0.50458204  0.68227340  0.69101908     0.19300
H674        H  0.47177397  0.60639662  0.90672178     0.12600
C675        C  0.47241677  0.81192797  0.79446834     0.16500
C676        C  0.46700391  0.82533129  0.83253161    -0.32600
C677        C  0.47558764  0.85362190  0.82691412     0.20900
C678        C  0.48880636  0.86786414  0.78519672     0.03100
C679        C  0.49350443  0.85427294  0.74669457    -0.22300
C680        C  0.48511216  0.82608234  0.75240358     0.12200
S681        S  0.46614528  0.77851076  0.79581375    -0.05900
C682        C  0.48092269  0.78376698  0.73918742    -0.09400
C683        C  0.48957980  0.80988262  0.72023110    -0.26000
S684        S  0.49899721  0.90241490  0.78633231    -0.03200
C685        C  0.48485213  0.89762250  0.84335931    -0.16700
C686        C  0.47303417  0.87055022  0.86029733    -0.14700
H687        H  0.45723927  0.81440865  0.86555113     0.20700
H688        H  0.50395237  0.86538951  0.71418504     0.16800
H689        H  0.49981545  0.81708161  0.68565257     0.19300
H690        H  0.46346050  0.86372265  0.89543701     0.12600
C691        C  0.49345433  0.62667357  0.14594221     0.16500
C692        C  0.49725767  0.64422714  0.18527096    -0.32600
C693        C  0.48822511  0.66363732  0.18071561     0.20900
C694        C  0.47582869  0.66533478  0.13894422     0.03100
C695        C  0.47155917  0.64745983  0.10005184    -0.22300
C696        C  0.48070680  0.62818077  0.10448934     0.12200
S697        S  0.50387461  0.60245335  0.14345620    -0.05900
C698        C  0.49065041  0.59402060  0.08613237    -0.09400
C699        C  0.47884005  0.60938333  0.07022522    -0.26000
S700        S  0.46769854  0.69116764  0.13923796    -0.03200
C701        C  0.48107682  0.69991345  0.19634067    -0.16700
C702        C  0.49105498  0.68328560  0.21406903    -0.14700
H703        H  0.50723877  0.64311935  0.21766597     0.20700
H704        H  0.46194461  0.64884906  0.06739705     0.16800
H705        H  0.46950838  0.60702487  0.03531974     0.19300
H706        H  0.50063202  0.68597057  0.24882336     0.12600
C707        C  0.49567613  0.87195656  0.13195390     0.16500
C708        C  0.50052388  0.85952744  0.17145586    -0.32600
C709        C  0.48934347  0.83061919  0.17040771     0.20900
C710        C  0.47445063  0.81477204  0.13130381     0.03100
C711        C  0.46944673  0.82719686  0.09179653    -0.22300
C712        C  0.48019031  0.85611678  0.09329093     0.12200
S713        S  0.50711499  0.90665931  0.12701826    -0.05900
C714        C  0.49030001  0.89987596  0.07272874    -0.09400
C715        C  0.47688267  0.87201769  0.05924028    -0.26000
S716        S  0.46387619  0.78018536  0.13622938    -0.03200
C717        C  0.47950961  0.78718280  0.19175492    -0.16700
C718        C  0.49195417  0.81487485  0.20544317    -0.14700
H719        H  0.51241427  0.87186274  0.20183644     0.20700
H720        H  0.45763933  0.81486980  0.06134648     0.16800
H721        H  0.46522900  0.86383509  0.02644881     0.19300
H722        H  0.50325077  0.82324175  0.23850691     0.12600
C723        C  0.49844975  0.73550532  0.50704610     0.16500
C724        C  0.49843583  0.72555719  0.46055428    -0.32600
C725        C  0.49773327  0.74114013  0.42169410     0.20900
C726        C  0.49723483  0.76562630  0.42875746     0.03100
C727        C  0.49693217  0.77540859  0.47525728    -0.22300
C728        C  0.49747941  0.75974601  0.51410314     0.12200
S729        S  0.49900170  0.71954537  0.55890881    -0.05900
C730        C  0.49743563  0.74556388  0.59055886    -0.09400
C731        C  0.49682761  0.76558974  0.56190703    -0.26000
S732        S  0.49607418  0.78127221  0.37692663    -0.03200
C733        C  0.49550659  0.75415113  0.34527127    -0.16700
C734        C  0.49680347  0.73448061  0.37390833    -0.14700
H735        H  0.49875615  0.70640342  0.45491970     0.20700
H736        H  0.49610333  0.79429583  0.48091997     0.16800
H737        H  0.49547481  0.78324272  0.57531049     0.19300
H738        H  0.49625166  0.71583701  0.36058452     0.12600
loop_ 
_geom_bond_atom_site_label_1 
_geom_bond_atom_site_label_2 
_geom_bond_distance 
_geom_bond_site_symmetry_2 
_ccdc_geom_bond_type 
C1            N2   1.358       .  A
C1            N6   1.360       .  A
C1          C701   1.477       .  S
N2            C3   1.357       .  A
C3            N4   1.360       .  A
C3          C717   1.476       .  S
N4            C5   1.361       .  A
C5            N6   1.362       .  A
C5          C733   1.479       .  S
C7            N8   1.358       .  A
C7           N12   1.360       .  A
C7          C666   1.474       .  S
N8            C9   1.358       .  A
C9           N10   1.359       .  A
C9          C682   1.474       .  S
N10          C11   1.360       .  A
C11          N12   1.360       .  A
C11         C730   1.476       .  S
C13          N14   1.357       .  A
C13          N18   1.360       .  A
C13         C650   1.473       .  S
N14          C15   1.356       .  A
C15          N16   1.359       .  A
C15         C634   1.473       .  S
N16          C17   1.359       .  A
C17          N18   1.362       .  A
C17         C621   1.476       .  S
C19          N20   1.359       .  A
C19          N24   1.362       .  A
C19         C605   1.472       .  S
N20          C21   1.356       .  A
C21          N22   1.352       .  A
C21         C589   1.468       .  S
N22          C23   1.355       .  A
C23          N24   1.361       .  A
C23         C637   1.468       .  S
C25          N26   1.361       .  A
C25          N30   1.362       .  A
C25         C570   1.478       .  S
N26          C27   1.360       .  A
C27          N28   1.358       .  A
C27         C541   1.477       .  S
N28          C29   1.357       .  A
C29          N30   1.361       .  A
C29         C557   1.477       .  S
C31          N32   1.356       .  A
C31          N36   1.360       .  A
C31         C522   1.469       .  S
N32          C33   1.355       .  A
C33          N34   1.358       .  A
C33         C506   1.470       .  S
N34          C35   1.359       .  A
C35          N36   1.360       .  A
C35         C538   1.475       .  S
C37          N38   1.356       .  A
C37          N42   1.356       .  A
C37         C490   1.469       .  S
N38          C39   1.357       .  A
C39          N40   1.359       .  A
C39         C458   1.470       .  S
N40          C41   1.361       .  A
C41          N42   1.357       .  A
C41         C474   1.471       .  S
C43          N44   1.361       .  A
C43          N48   1.357       .  A
C43         C445   1.467       .  S
N44          C45   1.359       .  A
C45          N46   1.357       .  A
C45         C426   1.467       .  S
N46          C47   1.355       .  A
C47          N48   1.355       .  A
C47         C477   1.471       .  S
C49          N50   1.363       .  A
C49          N54   1.362       .  A
C49         C378   1.477       .  S
N50          C51   1.361       .  A
C51          N52   1.355       .  A
C51         C413   1.469       .  S
N52          C53   1.353       .  A
C53          N54   1.358       .  A
C53         C394   1.475       .  S
C55          N56   1.356       .  A
C55          N60   1.358       .  A
C55         C346   1.471       .  S
N56          C57   1.355       .  A
C57          N58   1.359       .  A
C57         C397   1.472       .  S
N58          C59   1.359       .  A
C59          N60   1.361       .  A
C59         C365   1.470       .  S
C61          N62   1.360       .  A
C61          N66   1.355       .  A
C61         C333   1.471       .  S
N62          C63   1.363       .  A
C63          N64   1.360       .  A
C63         C317   1.472       .  S
N64          C65   1.357       .  A
C65          N66   1.354       .  A
C65         C301   1.471       .  S
C67          N68   1.359       .  A
C67          N72   1.359       .  A
C67         C282   1.469       .  S
N68          C69   1.356       .  A
C69          N70   1.355       .  A
C69         C266   1.466       .  S
N70          C71   1.354       .  A
C71          N72   1.358       .  A
C71         C298   1.469       .  S
O73         Zr85   2.459       .  S
O73          C75   1.291       .  A
O74        Zr111   2.431   1_554  S
O74          C75   1.288       .  A
C75         C698   1.480       .  S
O76         Zr88   2.441       .  S
O76          C78   1.287       .  A
O77        Zr112   2.425       .  S
O77          C78   1.286       .  A
C78         C349   1.468       .  S
O79         Zr88   2.438       .  S
O79          C81   1.286       .  A
O80        Zr111   2.424       .  S
O80          C81   1.287       .  A
C81         C669   1.468       .  S
O82         Zr85   2.462       .  S
O82          C84   1.292       .  A
O83        Zr112   2.417   1_554  S
O83          C84   1.285       .  A
C84         C381   1.476       .  S
Zr85         O86   2.434       .  S
Zr85         O87   2.436       .  S
Zr85         O91   2.382   1_554  S
Zr85         O92   2.378   1_554  S
Zr85        O115   2.373       .  S
Zr85        O117   2.377       .  S
O86         H129   0.990       .  S
O87         H128   0.990       .  S
O87         H132   0.990       .  S
Zr88         O89   2.437       .  S
Zr88         O90   2.433       .  S
Zr88         O92   2.370       .  S
Zr88         O91   2.378       .  S
Zr88        O116   2.366       .  S
Zr88        O118   2.373       .  S
O89         H130   0.990       .  S
O89         H133   0.990       .  S
O90         H123   0.990       .  S
O91        Zr111   2.387       .  S
O92        Zr112   2.386       .  S
O92         H119   0.967       .  S
O93        Zr105   2.438       .  S
O93          C95   1.287       .  A
O94        Zr112   2.415   1_554  S
O94          C95   1.284       .  A
C95         C269   1.465       .  S
O96        Zr108   2.438       .  S
O96          C98   1.287       .  A
O97        Zr111   2.430       .  S
O97          C98   1.288       .  A
C98         C509   1.472       .  S
O99        Zr108   2.432       .  S
O99         C101   1.286       .  A
O100       Zr112   2.426       .  S
O100        C101   1.286       .  A
C101        C314   1.470       .  S
O102       Zr105   2.447       .  S
O102        C104   1.289       .  A
O103       Zr111   2.426   1_554  S
O103        C104   1.287       .  A
C104        C554   1.475       .  S
Zr105       O106   2.437       .  S
Zr105       O107   2.435       .  S
Zr105       O113   2.371   1_554  S
Zr105       O114   2.375   1_554  S
Zr105       O117   2.367       .  S
Zr105       O115   2.375       .  S
O106        H126   0.990       .  S
O106        H131   0.990       .  S
O107        H127   0.990       .  S
Zr108       O109   2.433       .  S
Zr108       O110   2.435       .  S
Zr108       O114   2.374       .  S
Zr108       O113   2.371       .  S
Zr108       O118   2.372       .  S
Zr108       O116   2.365       .  S
O109        H125   0.990       .  S
O110        H124   0.990       .  S
O110        H134   0.990       .  S
Zr111       O114   2.381       .  S
Zr111       O116   2.384       .  S
Zr111       O117   2.386   1_556  S
Zr112       O113   2.386       .  S
Zr112       O115   2.385   1_556  S
Zr112       O118   2.379       .  S
O113        H121   0.966       .  S
O116        H120   0.965       .  S
O117        H122   0.966       .  S
O135       Zr147   2.465   1_455  S
O135        C137   1.292       .  A
O136       Zr173   2.426       .  S
O136        C137   1.287       .  A
C137        C618   1.480       .  S
O138       Zr150   2.453       .  S
O138        C140   1.291       .  A
O139       Zr174   2.409   1_554  S
O139        C140   1.283       .  A
C140        C410   1.471       .  S
O141       Zr150   2.445   1_455  S
O141        C143   1.288       .  A
O142       Zr173   2.423   1_554  S
O142        C143   1.287       .  A
C143        C586   1.468       .  S
O144       Zr147   2.459       .  S
O144        C146   1.291       .  A
O145       Zr174   2.411       .  S
O145        C146   1.284       .  A
C146        C362   1.475       .  S
Zr147       O148   2.434       .  S
Zr147       O149   2.437       .  S
Zr147       O153   2.378   1_655  S
Zr147       O154   2.371       .  S
Zr147       O177   2.378       .  S
Zr147       O179   2.371   1_655  S
O148        H191   0.990       .  S
O149        H190   0.990   1_655  S
O149        H194   0.990       .  S
Zr150       O151   2.435       .  S
Zr150       O152   2.435       .  S
Zr150       O154   2.371   1_554  S
Zr150       O153   2.379   1_654  S
Zr150       O178   2.370   1_655  S
Zr150       O180   2.372       .  S
O151        H192   0.990       .  S
O151        H195   0.990       .  S
O152        H185   0.990       .  S
O153       Zr173   2.386       .  S
O154       Zr174   2.383       .  S
O154        H181   0.966       .  S
O155       Zr167   2.440       .  S
O155        C157   1.287       .  A
O156       Zr174   2.418       .  S
O156        C157   1.285       .  A
C157        C493   1.469       .  S
O158       Zr170   2.435   1_455  S
O158        C160   1.287       .  A
O159       Zr173   2.443   1_554  S
O159        C160   1.290       .  A
C160        C573   1.477       .  S
O161       Zr170   2.440       .  S
O161        C163   1.288       .  A
O162       Zr174   2.418   1_554  S
O162        C163   1.285       .  A
C163        C442   1.469       .  S
O164       Zr167   2.432   1_455  S
O164        C166   1.286       .  A
O165       Zr173   2.421       .  S
O165        C166   1.286       .  A
C166        C525   1.466       .  S
Zr167       O168   2.436       .  S
Zr167       O169   2.433       .  S
Zr167       O175   2.370       .  S
Zr167       O176   2.376   1_655  S
Zr167       O179   2.365   1_655  S
Zr167       O177   2.367       .  S
O168        H188   0.990       .  S
O168        H193   0.990       .  S
O169        H189   0.990       .  S
Zr170       O171   2.433       .  S
Zr170       O172   2.435       .  S
Zr170       O176   2.377   1_654  S
Zr170       O175   2.371   1_554  S
Zr170       O180   2.369       .  S
Zr170       O178   2.367   1_655  S
O171        H187   0.990   1_554  S
O172        H186   0.990       .  S
O172        H196   0.990       .  S
Zr173       O176   2.381       .  S
Zr173       O178   2.380   1_556  S
Zr173       O179   2.385       .  S
Zr174       O175   2.375       .  S
Zr174       O177   2.377       .  S
Zr174       O180   2.378   1_556  S
O175        H183   0.966       .  S
O178        H182   0.966       .  S
O179        H184   0.965       .  S
O197       Zr209   2.449       .  S
O197        C199   1.289       .  A
O198       Zr235   2.427       .  S
O198        C199   1.287       .  A
C199        C685   1.475       .  S
O200       Zr212   2.454   1_545  S
O200        C202   1.291       .  A
O201       Zr236   2.399   1_554  S
O201        C202   1.281       .  A
C202        C429   1.466       .  S
O203       Zr212   2.452       .  S
O203        C205   1.290       .  A
O204       Zr235   2.437   1_554  S
O204        C205   1.289       .  A
C205        C714   1.479       .  S
O206       Zr209   2.430   1_545  S
O206        C208   1.285       .  A
O207       Zr236   2.424       .  S
O207        C208   1.287       .  A
C208        C461   1.469       .  S
Zr209       O210   2.435       .  S
Zr209       O211   2.434       .  S
Zr209       O215   2.372       .  S
Zr209       O216   2.370   1_565  S
Zr209       O239   2.378   1_565  S
Zr209       O241   2.365       .  S
O210        H253   0.990       .  S
O211        H252   0.990       .  S
O211        H256   0.990       .  S
Zr212       O213   2.438       .  S
Zr212       O214   2.434       .  S
Zr212       O216   2.371   1_564  S
Zr212       O215   2.379   1_554  S
Zr212       O240   2.369       .  S
Zr212       O242   2.372   1_565  S
O213        H254   0.990       .  S
O213        H257   0.990   1_564  S
O214        H247   0.990       .  S
O215       Zr235   2.384       .  S
O216       Zr236   2.386       .  S
O216        H243   0.966       .  S
O217       Zr229   2.447   1_545  S
O217        C219   1.289       .  A
O218       Zr236   2.414       .  S
O218        C219   1.284       .  A
C219        C330   1.470       .  S
O220       Zr232   2.443       .  S
O220        C222   1.288       .  A
O221       Zr235   2.424   1_554  S
O221        C222   1.287       .  A
C222        C602   1.472       .  S
O223       Zr232   2.451   1_545  S
O223        C225   1.290       .  A
O224       Zr236   2.418   1_554  S
O224        C225   1.285       .  A
C225        C285   1.470       .  S
O226       Zr229   2.440       .  S
O226        C228   1.288       .  A
O227       Zr235   2.435       .  S
O227        C228   1.289       .  A
C228        C653   1.474       .  S
Zr229       O230   2.436       .  S
Zr229       O231   2.434       .  S
Zr229       O237   2.364   1_565  S
Zr229       O238   2.377       .  S
Zr229       O241   2.374       .  S
Zr229       O239   2.370   1_565  S
O230        H250   0.990       .  S
O230        H255   0.990       .  S
O231        H251   0.990       .  S
Zr232       O233   2.433       .  S
Zr232       O234   2.435       .  S
Zr232       O238   2.378   1_554  S
Zr232       O237   2.368   1_564  S
Zr232       O242   2.371   1_565  S
Zr232       O240   2.365       .  S
O233        H249   0.990       .  S
O234        H248   0.990   1_565  S
O234        H258   0.990   1_565  S
Zr235       O238   2.382       .  S
Zr235       O240   2.386   1_556  S
Zr235       O241   2.385       .  S
Zr236       O237   2.377       .  S
Zr236       O239   2.375       .  S
Zr236       O242   2.381   1_556  S
O237        H245   0.965       .  S
O240        H244   0.966       .  S
O241        H246   0.965       .  S
C259        S265   1.708       .  A
C259        C264   1.387       .  A
C259        C260   1.402       .  A
C260        C261   1.403       .  A
C260        H271   1.083       .  S
C261        C270   1.370       .  A
C261        C262   1.388       .  A
C262        S268   1.701       .  A
C262        C263   1.396       .  A
C263        C264   1.398       .  A
C263        H272   1.083       .  S
C264        C267   1.363       .  A
S265        C266   1.723       .  A
C266        C267   1.384       .  A
C267        H273   1.083       .  S
S268        C269   1.720       .  A
C269        C270   1.387       .  A
C270        H274   1.083       .  S
C275        S281   1.706       .  A
C275        C280   1.387       .  A
C275        C276   1.400       .  A
C276        C277   1.401       .  A
C276        H287   1.083       .  S
C277        C286   1.369       .  A
C277        C278   1.387       .  A
C278        S284   1.707       .  A
C278        C279   1.401       .  A
C279        C280   1.402       .  A
C279        H288   1.083       .  S
C280        C283   1.368       .  A
S281        C282   1.722       .  A
C282        C283   1.386       .  A
C283        H289   1.083       .  S
S284        C285   1.724       .  A
C285        C286   1.385       .  A
C286        H290   1.083       .  S
C291        S297   1.704       .  A
C291        C296   1.387       .  A
C291        C292   1.402       .  A
C292        C293   1.402       .  A
C292        H303   1.083       .  S
C293        C302   1.372       .  A
C293        C294   1.387       .  A
C294        S300   1.700       .  A
C294        C295   1.398       .  A
C295        C296   1.398       .  A
C295        H304   1.083       .  S
C296        C299   1.368       .  A
S297        C298   1.725       .  A
C298        C299   1.384       .  A
C299        H305   1.083       .  S
S300        C301   1.722       .  A
C301        C302   1.387       .  A
C302        H306   1.083       .  S
C307        S313   1.707       .  A
C307        C312   1.387       .  A
C307        C308   1.402       .  A
C308        C309   1.403       .  A
C308        H319   1.083       .  S
C309        C318   1.372       .  A
C309        C310   1.387       .  A
C310        S316   1.705       .  A
C310        C311   1.400       .  A
C311        C312   1.401       .  A
C311        H320   1.083       .  S
C312        C315   1.368       .  A
S313        C314   1.723       .  A
C314        C315   1.386       .  A
C315        H321   1.083       .  S
S316        C317   1.723       .  A
C317        C318   1.387       .  A
C318        H322   1.083       .  S
C323        S329   1.708       .  A
C323        C328   1.387       .  A
C323        C324   1.404       .  A
C324        C325   1.405       .  A
C324        H335   1.083       .  S
C325        C334   1.374       .  A
C325        C326   1.387       .  A
C326        S332   1.701       .  A
C326        C327   1.398       .  A
C327        C328   1.398       .  A
C327        H336   1.083       .  S
C328        C331   1.367       .  A
S329        C330   1.726       .  A
C330        C331   1.383       .  A
C331        H337   1.083       .  S
S332        C333   1.722       .  A
C333        C334   1.387       .  A
C334        H338   1.083       .  S
C339        S345   1.710       .  A
C339        C344   1.387       .  A
C339        C340   1.402       .  A
C340        C341   1.404       .  A
C340        H351   1.083       .  S
C341        C350   1.371       .  A
C341        C342   1.388       .  A
C342        S348   1.705       .  A
C342        C343   1.398       .  A
C343        C344   1.400       .  A
C343        H352   1.083       .  S
C344        C347   1.365       .  A
S345        C346   1.724       .  A
C346        C347   1.386       .  A
C347        H353   1.083       .  S
S348        C349   1.721       .  A
C349        C350   1.386       .  A
C350        H354   1.083       .  S
C355        S361   1.701       .  A
C355        C360   1.387       .  A
C355        C356   1.399       .  A
C356        C357   1.399       .  A
C356        H367   1.083       .  S
C357        C366   1.368       .  A
C357        C358   1.387       .  A
C358        S364   1.709       .  A
C358        C359   1.405       .  A
C359        C360   1.405       .  A
C359        H368   1.083       .  S
C360        C363   1.375       .  A
S361        C362   1.723       .  A
C362        C363   1.389       .  A
C363        H369   1.083       .  S
S364        C365   1.725       .  A
C365        C366   1.384       .  A
C366        H370   1.083       .  S
C371        S377   1.705       .  A
C371        C376   1.387       .  A
C371        C372   1.402       .  A
C372        C373   1.402       .  A
C372        H383   1.083       .  S
C373        C382   1.373       .  A
C373        C374   1.387       .  A
C374        S380   1.709       .  A
C374        C375   1.405       .  A
C375        C376   1.405       .  A
C375        H384   1.083       .  S
C376        C379   1.376       .  A
S377        C378   1.723       .  A
C378        C379   1.390       .  A
C379        H385   1.083       .  S
S380        C381   1.727       .  A
C381        C382   1.386       .  A
C382        H386   1.083       .  S
C387        S393   1.705       .  A
C387        C392   1.387       .  A
C387        C388   1.402       .  A
C388        C389   1.402       .  A
C388        H399   1.083       .  S
C389        C398   1.372       .  A
C389        C390   1.387       .  A
C390        S396   1.704       .  A
C390        C391   1.401       .  A
C391        C392   1.402       .  A
C391        H400   1.083       .  S
C392        C395   1.372       .  A
S393        C394   1.726       .  A
C394        C395   1.387       .  A
C395        H401   1.083       .  S
S396        C397   1.724       .  A
C397        C398   1.386       .  A
C398        H402   1.083       .  S
C403        S409   1.708       .  A
C403        C408   1.387       .  A
C403        C404   1.405       .  A
C404        C405   1.405       .  A
C404        H415   1.083       .  S
C405        C414   1.375       .  A
C405        C406   1.388       .  A
C406        S412   1.698       .  A
C406        C407   1.397       .  A
C407        C408   1.397       .  A
C407        H416   1.083       .  S
C408        C411   1.367       .  A
S409        C410   1.727       .  A
C410        C411   1.383       .  A
C411        H417   1.083       .  S
S412        C413   1.721       .  A
C413        C414   1.388       .  A
C414        H418   1.083       .  S
C419        S425   1.698       .  A
C419        C424   1.388       .  A
C419        C420   1.395       .  A
C420        C421   1.395       .  A
C420        H431   1.083       .  S
C421        C430   1.364       .  A
C421        C422   1.387       .  A
C422        S428   1.707       .  A
C422        C423   1.404       .  A
C423        C424   1.405       .  A
C423        H432   1.083       .  S
C424        C427   1.373       .  A
S425        C426   1.719       .  A
C426        C427   1.388       .  A
C427        H433   1.083       .  S
S428        C429   1.727       .  A
C429        C430   1.381       .  A
C430        H434   1.083       .  S
C435        S441   1.706       .  A
C435        C440   1.387       .  A
C435        C436   1.401       .  A
C436        C437   1.402       .  A
C436        H447   1.083       .  S
C437        C446   1.370       .  A
C437        C438   1.387       .  A
C438        S444   1.702       .  A
C438        C439   1.399       .  A
C439        C440   1.399       .  A
C439        H448   1.083       .  S
C440        C443   1.368       .  A
S441        C442   1.723       .  A
C442        C443   1.385       .  A
C443        H449   1.083       .  S
S444        C445   1.722       .  A
C445        C446   1.385       .  A
C446        H450   1.083       .  S
C451        S457   1.701       .  A
C451        C456   1.387       .  A
C451        C452   1.398       .  A
C452        C453   1.398       .  A
C452        H463   1.083       .  S
C453        C462   1.368       .  A
C453        C454   1.387       .  A
C454        S460   1.705       .  A
C454        C455   1.403       .  A
C455        C456   1.403       .  A
C455        H464   1.083       .  S
C456        C459   1.373       .  A
S457        C458   1.721       .  A
C458        C459   1.388       .  A
C459        H465   1.083       .  S
S460        C461   1.725       .  A
C461        C462   1.384       .  A
C462        H466   1.083       .  S
C467        S473   1.706       .  A
C467        C472   1.387       .  A
C467        C468   1.402       .  A
C468        C469   1.403       .  A
C468        H479   1.083       .  S
C469        C478   1.370       .  A
C469        C470   1.387       .  A
C470        S476   1.704       .  A
C470        C471   1.399       .  A
C471        C472   1.400       .  A
C471        H480   1.083       .  S
C472        C475   1.368       .  A
S473        C474   1.725       .  A
C474        C475   1.385       .  A
C475        H481   1.083       .  S
S476        C477   1.722       .  A
C477        C478   1.387       .  A
C478        H482   1.083       .  S
C483        S489   1.706       .  A
C483        C488   1.387       .  A
C483        C484   1.400       .  A
C484        C485   1.401       .  A
C484        H495   1.083       .  S
C485        C494   1.369       .  A
C485        C486   1.387       .  A
C486        S492   1.705       .  A
C486        C487   1.400       .  A
C487        C488   1.401       .  A
C487        H496   1.083       .  S
C488        C491   1.368       .  A
S489        C490   1.723       .  A
C490        C491   1.385       .  A
C491        H497   1.083       .  S
S492        C493   1.723       .  A
C493        C494   1.386       .  A
C494        H498   1.083       .  S
C499        S505   1.706       .  A
C499        C504   1.387       .  A
C499        C500   1.401       .  A
C500        C501   1.402       .  A
C500        H511   1.083       .  S
C501        C510   1.371       .  A
C501        C502   1.387       .  A
C502        S508   1.704       .  A
C502        C503   1.400       .  A
C503        C504   1.401       .  A
C503        H512   1.083       .  S
C504        C507   1.369       .  A
S505        C506   1.724       .  A
C506        C507   1.385       .  A
C507        H513   1.083       .  S
S508        C509   1.724       .  A
C509        C510   1.387       .  A
C510        H514   1.083       .  S
C515        S521   1.704       .  A
C515        C520   1.387       .  A
C515        C516   1.400       .  A
C516        C517   1.401       .  A
C516        H527   1.083       .  S
C517        C526   1.369       .  A
C517        C518   1.387       .  A
C518        S524   1.702       .  A
C518        C519   1.399       .  A
C519        C520   1.400       .  A
C519        H528   1.083       .  S
C520        C523   1.369       .  A
S521        C522   1.724       .  A
C522        C523   1.385       .  A
C523        H529   1.083       .  S
S524        C525   1.722       .  A
C525        C526   1.385       .  A
C526        H530   1.083       .  S
C531        S537   1.706       .  A
C531        C536   1.387       .  A
C531        C532   1.401       .  A
C532        C533   1.402       .  A
C532        H543   1.083       .  S
C533        C542   1.370       .  A
C533        C534   1.386       .  A
C534        S540   1.710       .  A
C534        C535   1.403       .  A
C535        C536   1.404       .  A
C535        H544   1.083       .  S
C536        C539   1.372       .  A
S537        C538   1.723       .  A
C538        C539   1.388       .  A
C539        H545   1.083       .  S
S540        C541   1.725       .  A
C541        C542   1.388       .  A
C542        H546   1.083       .  S
C547        S553   1.705       .  A
C547        C552   1.387       .  A
C547        C548   1.402       .  A
C548        C549   1.402       .  A
C548        H559   1.083       .  S
C549        C558   1.374       .  A
C549        C550   1.387       .  A
C550        S556   1.708       .  A
C550        C551   1.404       .  A
C551        C552   1.404       .  A
C551        H560   1.083       .  S
C552        C555   1.375       .  A
S553        C554   1.723       .  A
C554        C555   1.389       .  A
C555        H561   1.083       .  S
S556        C557   1.725       .  A
C557        C558   1.387       .  A
C558        H562   1.083       .  S
C563        S569   1.710       .  A
C563        C568   1.387       .  A
C563        C564   1.404       .  A
C564        C565   1.404       .  A
C564        H575   1.083       .  S
C565        C574   1.375       .  A
C565        C566   1.387       .  A
C566        S572   1.707       .  A
C566        C567   1.404       .  A
C567        C568   1.404       .  A
C567        H576   1.083       .  S
C568        C571   1.374       .  A
S569        C570   1.724       .  A
C570        C571   1.389       .  A
C571        H577   1.083       .  S
S572        C573   1.726       .  A
C573        C574   1.388       .  A
C574        H578   1.083       .  S
C579        S585   1.710       .  A
C579        C584   1.387       .  A
C579        C580   1.403       .  A
C580        C581   1.404       .  A
C580        H591   1.083       .  S
C581        C590   1.369       .  A
C581        C582   1.387       .  A
C582        S588   1.704       .  A
C582        C583   1.397       .  A
C583        C584   1.399       .  A
C583        H592   1.083       .  S
C584        C587   1.366       .  A
S585        C586   1.724       .  A
C586        C587   1.383       .  A
C587        H593   1.083       .  S
S588        C589   1.719       .  A
C589        C590   1.389       .  A
C590        H594   1.083       .  S
C595        S601   1.709       .  A
C595        C600   1.387       .  A
C595        C596   1.404       .  A
C596        C597   1.405       .  A
C596        H607   1.083       .  S
C597        C606   1.373       .  A
C597        C598   1.387       .  A
C598        S604   1.703       .  A
C598        C599   1.399       .  A
C599        C600   1.400       .  A
C599        H608   1.083       .  S
C600        C603   1.369       .  A
S601        C602   1.725       .  A
C602        C603   1.385       .  A
C603        H609   1.083       .  S
S604        C605   1.722       .  A
C605        C606   1.388       .  A
C606        H610   1.083       .  S
C611        S617   1.707       .  A
C611        C616   1.387       .  A
C611        C612   1.402       .  A
C612        C613   1.402       .  A
C612        H623   1.083       .  S
C613        C622   1.372       .  A
C613        C614   1.387       .  A
C614        S620   1.711       .  A
C614        C615   1.405       .  A
C615        C616   1.406       .  A
C615        H624   1.083       .  S
C616        C619   1.376       .  A
S617        C618   1.725       .  A
C618        C619   1.390       .  A
C619        H625   1.083       .  S
S620        C621   1.726       .  A
C621        C622   1.386       .  A
C622        H626   1.083       .  S
C627        S633   1.705       .  A
C627        C632   1.387       .  A
C627        C628   1.402       .  A
C628        C629   1.402       .  A
C628        H639   1.083       .  S
C629        C638   1.372       .  A
C629        C630   1.387       .  A
C630        S636   1.699       .  A
C630        C631   1.399       .  A
C631        C632   1.399       .  A
C631        H640   1.083       .  S
C632        C635   1.369       .  A
S633        C634   1.725       .  A
C634        C635   1.385       .  A
C635        H641   1.083       .  S
S636        C637   1.723       .  A
C637        C638   1.386       .  A
C638        H642   1.083       .  S
C643        S649   1.712       .  A
C643        C648   1.387       .  A
C643        C644   1.404       .  A
C644        C645   1.405       .  A
C644        H655   1.083       .  S
C645        C654   1.372       .  A
C645        C646   1.387       .  A
C646        S652   1.707       .  A
C646        C647   1.400       .  A
C647        C648   1.402       .  A
C647        H656   1.083       .  S
C648        C651   1.369       .  A
S649        C650   1.724       .  A
C650        C651   1.386       .  A
C651        H657   1.083       .  S
S652        C653   1.724       .  A
C653        C654   1.388       .  A
C654        H658   1.083       .  S
C659        S665   1.705       .  A
C659        C664   1.387       .  A
C659        C660   1.400       .  A
C660        C661   1.401       .  A
C660        H671   1.083       .  S
C661        C670   1.369       .  A
C661        C662   1.387       .  A
C662        S668   1.707       .  A
C662        C663   1.402       .  A
C663        C664   1.403       .  A
C663        H672   1.083       .  S
C664        C667   1.371       .  A
S665        C666   1.723       .  A
C666        C667   1.388       .  A
C667        H673   1.083       .  S
S668        C669   1.724       .  A
C669        C670   1.384       .  A
C670        H674   1.083       .  S
C675        S681   1.709       .  A
C675        C680   1.387       .  A
C675        C676   1.403       .  A
C676        C677   1.404       .  A
C676        H687   1.083       .  S
C677        C686   1.372       .  A
C677        C678   1.387       .  A
C678        S684   1.707       .  A
C678        C679   1.401       .  A
C679        C680   1.402       .  A
C679        H688   1.083       .  S
C680        C683   1.370       .  A
S681        C682   1.725       .  A
C682        C683   1.386       .  A
C683        H689   1.083       .  S
S684        C685   1.724       .  A
C685        C686   1.389       .  A
C686        H690   1.083       .  S
C691        S697   1.711       .  A
C691        C696   1.386       .  A
C691        C692   1.406       .  A
C692        C693   1.405       .  A
C692        H703   1.083       .  S
C693        C702   1.376       .  A
C693        C694   1.387       .  A
C694        S700   1.706       .  A
C694        C695   1.403       .  A
C695        C696   1.403       .  A
C695        H704   1.083       .  S
C696        C699   1.374       .  A
S697        C698   1.726       .  A
C698        C699   1.389       .  A
C699        H705   1.083       .  S
S700        C701   1.724       .  A
C701        C702   1.389       .  A
C702        H706   1.083       .  S
C707        S713   1.707       .  A
C707        C712   1.387       .  A
C707        C708   1.402       .  A
C708        C709   1.402       .  A
C708        H719   1.083       .  S
C709        C718   1.372       .  A
C709        C710   1.387       .  A
C710        S716   1.710       .  A
C710        C711   1.406       .  A
C711        C712   1.406       .  A
C711        H720   1.083       .  S
C712        C715   1.376       .  A
S713        C714   1.724       .  A
C714        C715   1.390       .  A
C715        H721   1.083       .  S
S716        C717   1.727       .  A
C717        C718   1.386       .  A
C718        H722   1.083       .  S
C723        S729   1.709       .  A
C723        C728   1.386       .  A
C723        C724   1.403       .  A
C724        C725   1.404       .  A
C724        H735   1.083       .  S
C725        C734   1.372       .  A
C725        C726   1.386       .  A
C726        S732   1.709       .  A
C726        C727   1.403       .  A
C727        C728   1.403       .  A
C727        H736   1.083       .  S
C728        C731   1.371       .  A
S729        C730   1.725       .  A
C730        C731   1.388       .  A
C731        H737   1.083       .  S
S732        C733   1.726       .  A
C733        C734   1.389       .  A
C734        H738   1.083       .  S
