geometry optimzed in LAMMPS
_audit_creation_date              2020-12-01 
_audit_creation_method            'lammps2cif' 
_symmetry_space_group_name_H-M    'P1' 
_symmetry_Int_Tables_number       1 
_symmetry_cell_setting            triclinic 
loop_ 
_symmetry_equiv_pos_as_xyz 
  x,y,z 
_cell_length_a                    24.31859013 
_cell_length_b                    24.319180837234075 
_cell_length_c                    25.132771277029896 
_cell_angle_alpha                 89.99519897353139 
_cell_angle_beta                  89.99725653465556 
_cell_angle_gamma                 89.99150606218078 
loop_ 
_atom_site_label 
_atom_site_type_symbol 
_atom_site_fract_x 
_atom_site_fract_y 
_atom_site_fract_z 
_atom_site_charge 
N1          N  0.43156483  0.60316346  0.44288427    -0.04100
N2          N  0.42053709  0.64021635  0.40590600    -0.56200
N3          N  0.39451833  0.56508375  0.56583170    -0.03800
N4          N  0.35772025  0.57575038  0.60311161    -0.58300
N5          N  0.43265142  0.60348794  0.56507456    -0.03400
N6          N  0.42270032  0.64097417  0.60185415    -0.56200
N7          N  0.39326704  0.56491214  0.44363188    -0.03100
N8          N  0.35551332  0.57504261  0.40714895    -0.58700
C9          C  0.37339368  0.62169818  0.38371686     0.98100
C10         C  0.37625858  0.62277636  0.62546351     0.97900
N11         N  0.43275564  0.39602780  0.56461523    -0.04300
N12         N  0.42277496  0.35832538  0.60118567    -0.56800
N13         N  0.39351907  0.43532423  0.44346367    -0.02400
N14         N  0.35589136  0.42542489  0.40682953    -0.58000
N15         N  0.43189214  0.39713300  0.44257836    -0.04300
N16         N  0.42104842  0.36033883  0.40535543    -0.57100
N17         N  0.39455769  0.43439411  0.56551267    -0.02000
N18         N  0.35770226  0.42346978  0.60268324    -0.58100
Mn19       Mn  0.39252536  0.49993037  0.50476794     1.18400
C20         C  0.37627115  0.37633150  0.62482116     1.00200
C21         C  0.37396068  0.37897219  0.38319222     1.00800
N22         N  0.56204027  0.60326891  0.56454187    -0.04300
N23         N  0.57230439  0.64078557  0.60114896    -0.60600
N24         N  0.60073007  0.56501193  0.44320351    -0.03100
N25         N  0.63841522  0.57556556  0.40679213    -0.61300
N26         N  0.56222755  0.60307709  0.44270027    -0.03800
N27         N  0.57299333  0.64040001  0.40597874    -0.60900
N28         N  0.60023697  0.56491198  0.56501586    -0.02700
N29         N  0.63739023  0.57560275  0.60190300    -0.61600
Mn30       Mn  0.49711893  0.60469990  0.50363065     1.10700
C31         C  0.61894534  0.62259141  0.62431428     1.01400
C32         C  0.62016213  0.62223689  0.38368680     1.01500
N33         N  0.56262739  0.39730505  0.44216938    -0.03800
N34         N  0.57323672  0.36070714  0.40470453    -0.59200
N35         N  0.60049108  0.43461562  0.56490852    -0.03200
N36         N  0.63734913  0.42400286  0.60215017    -0.55900
N37         N  0.56230632  0.39625892  0.56429393    -0.04500
N38         N  0.57228282  0.35884722  0.60112276    -0.58800
N39         N  0.60091663  0.43555961  0.44286211    -0.03500
N40         N  0.63826069  0.42592007  0.40589343    -0.56000
Mn41       Mn  0.49741224  0.39518721  0.50324351     1.20200
Mn42       Mn  0.60205849  0.50000450  0.50412264     1.10100
Cl43       Cl  0.49727267  0.49994836  0.50390436    -0.83900
C44         C  0.62007881  0.37955016  0.38222046     0.98400
C45         C  0.61876519  0.37704803  0.62461425     0.98200
C46         C  0.71060215  0.71669467  0.72634426     0.88500
C47         C  0.74909895  0.68354183  0.76261394    -0.51700
C48         C  0.78103980  0.71597389  0.79417618     0.11400
C49         C  0.77166888  0.77778677  0.78699577     0.22400
C50         C  0.67738043  0.75386432  0.76395380    -0.52400
C51         C  0.70978989  0.78573481  0.79573926     0.11500
C52         C  0.74852500  0.75580745  0.69522194    -0.52000
C53         C  0.78050093  0.78768051  0.72741323     0.12100
H54         H  0.75120801  0.63891512  0.76301117     0.16600
H55         H  0.79790024  0.80384634  0.81304012     0.02400
H56         H  0.63274183  0.75469330  0.76547610     0.16900
H57         H  0.75037001  0.75763436  0.65206725     0.16700
C58         C  0.71005664  0.28262996  0.72716122     0.88500
C59         C  0.74723676  0.24377349  0.69491777    -0.51700
C60         C  0.77965342  0.21131853  0.72612021     0.11400
C61         C  0.77202941  0.22036090  0.78594842     0.22400
C62         C  0.67740556  0.24497071  0.76485308    -0.52400
C63         C  0.71030325  0.21239573  0.79556163     0.11500
C64         C  0.74941686  0.31505603  0.76326165    -0.52000
C65         C  0.78184782  0.28202484  0.79385954     0.12100
H66         H  0.74823068  0.24247296  0.65171879     0.16600
H67         H  0.79863848  0.19376377  0.81112586     0.02400
H68         H  0.63279716  0.24408572  0.76696686     0.16900
H69         H  0.75173632  0.35965823  0.76420738     0.16700
C70         C  0.28518123  0.71652540  0.72911559     0.88500
C71         C  0.31871788  0.75349475  0.76664989    -0.51700
C72         C  0.28661871  0.78576602  0.79837468     0.11400
C73         C  0.22465423  0.77833315  0.78979093     0.22400
C74         C  0.24631383  0.68381140  0.76557798    -0.52400
C75         C  0.21462861  0.71661860  0.79719846     0.11500
C76         C  0.24756255  0.75602480  0.69804249    -0.52000
C77         C  0.21589043  0.78826955  0.73020561     0.12100
H78         H  0.36336655  0.75411986  0.76797553     0.16600
H79         H  0.19872589  0.80475628  0.81578485     0.02400
H80         H  0.24376426  0.63921565  0.76600042     0.16900
H81         H  0.24581519  0.75795194  0.65488927     0.16700
C82         C  0.28560812  0.28213869  0.72839095     0.88500
C83         C  0.24772617  0.31467768  0.76591686    -0.51700
C84         C  0.21557635  0.28169195  0.79687702     0.11400
C85         C  0.22421472  0.22002622  0.78794250     0.22400
C86         C  0.31862119  0.24341581  0.76480772    -0.52400
C87         C  0.28602874  0.21101318  0.79601401     0.11500
C88         C  0.24693545  0.24436902  0.69663568    -0.52000
C89         C  0.21487132  0.21197481  0.72820701     0.12100
H90         H  0.24597288  0.35929072  0.76735161     0.16600
H91         H  0.19783694  0.19351003  0.81342266     0.02400
H92         H  0.36324991  0.24197442  0.76598038     0.16900
H93         H  0.24480405  0.24364926  0.65346164     0.16700
N94         N  0.99843435  0.91502061  0.68380190    -0.34600
N95         N  0.08230042  0.00059689  0.68639051    -0.55100
N96         N  0.99727901  0.08529525  0.68191718    -0.34600
N97         N  0.91335718  0.99973565  0.68490442    -0.55100
C98         C  0.04335086  0.88526933  0.69747434     0.29000
C99         C  0.95361609  0.88475754  0.69661545     0.29000
C100        C  0.04185244  0.11583235  0.69482273     0.29000
C101        C  0.95217456  0.11537611  0.69414231     0.29000
C102        C  0.11514590  0.95621396  0.68044332     0.37600
C103        C  0.11447144  0.04526038  0.67927551     0.37600
C104        C  0.88113250  0.95494739  0.67878836     0.37600
C105        C  0.88056517  0.04399187  0.67791450     0.37600
C106        C  0.02685356  0.83504966  0.71827276    -0.19900
C107        C  0.97029038  0.83471574  0.71770728    -0.19900
C108        C  0.02486451  0.16637873  0.71451492    -0.19900
C109        C  0.96831267  0.16609665  0.71407484    -0.19900
C110        C  0.16856215  0.97273805  0.66961838    -0.20900
C111        C  0.16813425  0.02920211  0.66886213    -0.20900
C112        C  0.82748687  0.97081925  0.66801591    -0.20900
C113        C  0.82712550  0.02726727  0.66748460    -0.20900
C114        C  0.09874786  0.90152058  0.69037506    -0.16300
C115        C  0.89817376  0.90041855  0.68861069    -0.16300
C116        C  0.89694282  0.09890693  0.68658581    -0.16300
C117        C  0.09735705  0.09995325  0.68798685    -0.16300
H118        H  0.05283117  0.80208263  0.73262994     0.16600
H119        H  0.94441825  0.80144605  0.73156531     0.16600
H120        H  0.05050930  0.19996593  0.72804270     0.16600
H121        H  0.94210495  0.19941882  0.72722258     0.16600
H122        H  0.20434193  0.94685042  0.66421791     0.14900
H123        H  0.20353406  0.05544234  0.66278355     0.14900
H124        H  0.79203393  0.94450501  0.66257576     0.14900
H125        H  0.79135289  0.05304186  0.66154755     0.14900
H126        H  0.99836910  0.95289946  0.66479112     0.28200
H127        H  0.99766184  0.04696857  0.66377913     0.28200
C128        C  0.71265097  0.71590665  0.28182922     0.88500
C129        C  0.67877395  0.75515071  0.24695762    -0.51700
C130        C  0.71054855  0.78810358  0.21571757     0.11400
C131        C  0.77255305  0.77926270  0.22219548     0.22400
C132        C  0.74966082  0.68415618  0.24286461    -0.52400
C133        C  0.78098734  0.71777388  0.21171137     0.11500
C134        C  0.75183857  0.75310647  0.31353373    -0.52000
C135        C  0.78306628  0.78624627  0.28192844     0.12100
H136        H  0.63411367  0.75634519  0.24656283     0.16600
H137        H  0.79814663  0.80643639  0.19661916     0.02400
H138        H  0.75095694  0.63959393  0.24018022     0.16900
H139        H  0.75447655  0.75336232  0.35668887     0.16700
C140        C  0.27944230  0.71379864  0.28102689     0.88500
C141        C  0.24102670  0.68188990  0.24343777    -0.51700
C142        C  0.20928234  0.71540793  0.21249763     0.11400
C143        C  0.21886021  0.77702637  0.22172416     0.22400
C144        C  0.31289638  0.75210176  0.24478497    -0.52400
C145        C  0.28086411  0.78521326  0.21390451     0.11500
C146        C  0.24141380  0.75210581  0.31294316    -0.52000
C147        C  0.20979615  0.78515197  0.28154641     0.12100
H148        H  0.23890193  0.63730838  0.24171096     0.16600
H149        H  0.19299156  0.80414282  0.19635144     0.02400
H150        H  0.35754955  0.75329523  0.24398848     0.16900
H151        H  0.23982655  0.75314848  0.35613068     0.16700
N152        N  0.08049355  0.67286355  0.00305983    -0.34600
N153        N  0.99650829  0.67600902  0.92002748    -0.55100
N154        N  0.90992799  0.67146985  0.00130876    -0.34600
N155        N  0.99416603  0.67551093  0.08418547    -0.55100
C156        C  0.11242479  0.68317863  0.96006662     0.29000
C157        C  0.11124487  0.68273636  0.04692732     0.29000
C158        C  0.87958336  0.68252564  0.95748768     0.29000
C159        C  0.87835255  0.68307225  0.04424922     0.29000
C160        C  0.04149074  0.67206064  0.88863559     0.37600
C161        C  0.95232762  0.67100261  0.88778768     0.37600
C162        C  0.03837786  0.67091706  0.11651060     0.37600
C163        C  0.94916845  0.67097022  0.11547503     0.37600
C164        C  0.16458738  0.69852271  0.97689119    -0.19900
C165        C  0.16384586  0.69823687  0.03154757    -0.19900
C166        C  0.82753407  0.69994780  0.97280183    -0.19900
C167        C  0.82678017  0.70031466  0.02744387    -0.19900
C168        C  0.02576307  0.66509745  0.83601989    -0.20900
C169        C  0.96932594  0.66436364  0.83548608    -0.20900
C170        C  0.02131796  0.66375701  0.16870882    -0.20900
C171        C  0.96488352  0.66378115  0.16805481    -0.20900
C172        C  0.09639815  0.67842462  0.90608080    -0.16300
C173        C  0.09375026  0.67751242  0.10046412    -0.16300
C174        C  0.89432128  0.67807938  0.09818294    -0.16300
C175        C  0.89701043  0.67686900  0.90405074    -0.16300
H176        H  0.19960784  0.70921514  0.95239684     0.16600
H177        H  0.19819953  0.70866236  0.05700652     0.16600
H178        H  0.79368042  0.71186554  0.94731392     0.16600
H179        H  0.79225572  0.71250517  0.05194916     0.16600
H180        H  0.05217025  0.66170368  0.80150250     0.14900
H181        H  0.94373469  0.66041211  0.80045415     0.14900
H182        H  0.04686310  0.65998669  0.20378553     0.14900
H183        H  0.93845771  0.66006674  0.20252747     0.14900
H184        H  0.04058155  0.65827258  0.00253193     0.28200
H185        H  0.94930879  0.65532768  0.00177966     0.28200
C186        C  0.28143940  0.28768519  0.27909928     0.88500
C187        C  0.31505772  0.24927164  0.24305291    -0.51700
C188        C  0.28309730  0.21638241  0.21185529     0.11400
C189        C  0.22108665  0.22487383  0.21930021     0.22400
C190        C  0.24344621  0.31985009  0.24133167    -0.52400
C191        C  0.21179946  0.28650802  0.21017646     0.11500
C192        C  0.24299888  0.24958911  0.31069809    -0.52000
C193        C  0.21147727  0.21683343  0.27901026     0.12100
H194        H  0.35970893  0.24789230  0.24258091     0.16600
H195        H  0.19522327  0.19794418  0.19374559     0.02400
H196        H  0.24127482  0.36444101  0.23986975     0.16900
H197        H  0.24079753  0.24872983  0.35386859     0.16700
N198        N  0.91131696  0.00206763  0.32781959    -0.34600
N199        N  0.99696245  0.91699702  0.32551033    -0.55100
N200        N  0.08190282  0.00218774  0.32681452    -0.34600
N201        N  0.99645843  0.08730034  0.32338038    -0.55100
C202        C  0.88006553  0.95700223  0.31853325     0.29000
C203        C  0.87975687  0.04677772  0.31789208     0.29000
C204        C  0.11426823  0.95720989  0.32157879     0.29000
C205        C  0.11403521  0.04709333  0.32023427     0.29000
C206        C  0.95239149  0.88395978  0.32804371     0.37600
C207        C  0.04160616  0.88398800  0.32804659     0.37600
C208        C  0.95182376  0.12036710  0.32454095     0.37600
C209        C  0.04105417  0.12045173  0.32378712     0.37600
C210        C  0.82742625  0.97338413  0.30415944    -0.19900
C211        C  0.82721037  0.02983756  0.30382321    -0.19900
C212        C  0.16816669  0.97386932  0.31318798    -0.19900
C213        C  0.16803106  0.03037609  0.31235822    -0.19900
C214        C  0.96882060  0.82949526  0.33215902    -0.20900
C215        C  0.02522277  0.82951022  0.33210681    -0.20900
C216        C  0.96816418  0.17501921  0.32549774    -0.20900
C217        C  0.02456721  0.17507452  0.32489884    -0.20900
C218        C  0.89724586  0.90145219  0.32241202    -0.16300
C219        C  0.89663857  0.10247593  0.32060108    -0.16300
C220        C  0.09639810  0.10270978  0.32031165    -0.16300
C221        C  0.09688204  0.90155291  0.32340379    -0.16300
H222        H  0.79278065  0.94741123  0.29419283     0.16600
H223        H  0.79238758  0.05542484  0.29347343     0.16600
H224        H  0.20397025  0.94804731  0.30765639     0.16600
H225        H  0.20372889  0.05613696  0.30601726     0.16600
H226        H  0.94289864  0.79336263  0.33394732     0.14900
H227        H  0.05118018  0.79340451  0.33404743     0.14900
H228        H  0.94219001  0.21117229  0.32547784     0.14900
H229        H  0.05044214  0.21128767  0.32457799     0.14900
H230        H  0.95141204  0.00229805  0.34123544     0.28200
H231        H  0.04037610  0.00228502  0.33446402     0.28200
N232        N  0.33397407  0.91409853  0.00785865    -0.34600
N233        N  0.33128917  0.00005017  0.08917897    -0.55100
N234        N  0.33358557  0.08449072  0.00644683    -0.34600
N235        N  0.33060502  0.99852820  0.92528466    -0.55100
C236        C  0.32136696  0.88387045  0.05141758     0.29000
C237        C  0.32206631  0.88304290  0.96463985     0.29000
C238        C  0.32039197  0.11513917  0.04959168     0.29000
C239        C  0.32017723  0.11429796  0.96278181     0.29000
C240        C  0.33521359  0.95572211  0.12138575     0.37600
C241        C  0.33556380  0.04488933  0.12066576     0.37600
C242        C  0.33669698  0.95374530  0.89400897     0.37600
C243        C  0.33608457  0.04282354  0.89325481     0.37600
C244        C  0.30251960  0.83250214  0.03560331    -0.19900
C245        C  0.30296717  0.83199258  0.98096837    -0.19900
C246        C  0.29947194  0.16544108  0.03305620    -0.19900
C247        C  0.29931299  0.16488913  0.97839944    -0.19900
C248        C  0.34193407  0.97248904  0.17374217    -0.20900
C249        C  0.34221719  0.02896497  0.17328241    -0.20900
C250        C  0.34581974  0.96967184  0.84176291    -0.20900
C251        C  0.34544720  0.02610676  0.84128930    -0.20900
C252        C  0.32682893  0.90075856  0.10506426    -0.16300
C253        C  0.32863357  0.89896731  0.91087008    -0.16300
C254        C  0.32712711  0.09774106  0.90921539    -0.16300
C255        C  0.32718878  0.09957173  0.10347895    -0.16300
H256        H  0.28925608  0.79888659  0.06075283     0.16600
H257        H  0.29012172  0.79796752  0.95613805     0.16600
H258        H  0.28515547  0.19897308  0.05776481     0.16600
H259        H  0.28491100  0.19789395  0.95307710     0.16600
H260        H  0.34460651  0.94675375  0.20879393     0.14900
H261        H  0.34505632  0.05526146  0.20792414     0.14900
H262        H  0.35087252  0.94337219  0.80736236     0.14900
H263        H  0.35012965  0.05186053  0.80645407     0.14900
H264        H  0.35132755  0.95302717  0.00762696     0.28200
H265        H  0.35248761  0.04624530  0.00676490     0.28200
N266        N  0.91214012  0.32698433  0.00018113    -0.34600
N267        N  0.99623344  0.32530127  0.08289129    -0.55100
N268        N  0.08197346  0.32663355  0.00210850    -0.34600
N269        N  0.99806776  0.32283488  0.91933365    -0.55100
C270        C  0.88174649  0.31321050  0.04329876     0.29000
C271        C  0.88272464  0.31279823  0.95659239     0.29000
C272        C  0.11159030  0.31391020  0.04599066     0.29000
C273        C  0.11250328  0.31215889  0.95934607     0.29000
C274        C  0.95126502  0.33195351  0.11377878     0.37600
C275        C  0.04035609  0.33267810  0.11477406     0.37600
C276        C  0.95398712  0.32946462  0.88728412     0.37600
C277        C  0.04303228  0.32878184  0.88832139     0.37600
C278        C  0.83209457  0.29077172  0.02687396    -0.19900
C279        C  0.83268990  0.29054606  0.97218947    -0.19900
C280        C  0.16183517  0.29175480  0.03089986    -0.19900
C281        C  0.16239612  0.29061502  0.97624669    -0.19900
C282        C  0.96686646  0.34340783  0.16568023    -0.20900
C283        C  0.02336386  0.34391216  0.16629879    -0.20900
C284        C  0.97098563  0.33936232  0.83548358    -0.20900
C285        C  0.02748409  0.33888528  0.83613609    -0.20900
C286        C  0.89683517  0.32183178  0.09697729    -0.16300
C287        C  0.89904740  0.32078663  0.90318196    -0.16300
C288        C  0.09748683  0.31972320  0.90555122    -0.16300
C289        C  0.09531663  0.32333693  0.09918173    -0.16300
H290        H  0.79891980  0.27581241  0.05168246     0.16600
H291        H  0.80006935  0.27532967  0.94684706     0.16600
H292        H  0.19469678  0.27766364  0.05656029     0.16600
H293        H  0.19577517  0.27550313  0.95178095     0.16600
H294        H  0.94034452  0.34923268  0.19980793     0.14900
H295        H  0.04898387  0.35016076  0.20099154     0.14900
H296        H  0.94537324  0.34484018  0.80065858     0.14900
H297        H  0.05403873  0.34397591  0.80192049     0.14900
H298        H  0.94976020  0.34719200  0.00042435     0.28200
H299        H  0.04421042  0.34654719  0.00134151     0.28200
C300        C  0.71196976  0.28752112  0.27843387     0.88500
C301        C  0.75011558  0.31879432  0.24009188    -0.51700
C302        C  0.78148645  0.28470846  0.20939854     0.11400
C303        C  0.77198878  0.22334551  0.21970093     0.22400
C304        C  0.67814590  0.24870520  0.24297742    -0.52400
C305        C  0.70998752  0.21518124  0.21229110     0.11500
C306        C  0.75015761  0.24978736  0.31068148    -0.52000
C307        C  0.78149115  0.21631408  0.27955263     0.12100
H308        H  0.75224845  0.36333609  0.23760928     0.16600
H309        H  0.79769663  0.19582207  0.19458286     0.02400
H310        H  0.63348756  0.24785089  0.24218756     0.16900
H311        H  0.75232232  0.24966881  0.35386456     0.16700
N312        N  0.66229730  0.08446437  0.00523182    -0.34600
N313        N  0.66638331  0.99834623  0.92362475    -0.55100
N314        N  0.66111346  0.91361377  0.00616429    -0.34600
N315        N  0.66380865  0.99990115  0.08789301    -0.55100
C316        C  0.67322836  0.11542016  0.96171453     0.29000
C317        C  0.67198611  0.11611302  0.04857354     0.29000
C318        C  0.67170493  0.88184153  0.96310487     0.29000
C319        C  0.67098398  0.88275871  0.04996397     0.29000
C320        C  0.66475472  0.04277596  0.89129744     0.37600
C321        C  0.66396924  0.95355364  0.89182317     0.37600
C322        C  0.66120816  0.04465898  0.11967605     0.37600
C323        C  0.66086725  0.95554653  0.12012266     0.37600
C324        C  0.68850035  0.16789786  0.97765315    -0.19900
C325        C  0.68774076  0.16832818  0.03228026    -0.19900
C326        C  0.68683949  0.82957537  0.97981242    -0.19900
C327        C  0.68644114  0.83016109  0.03446749    -0.19900
C328        C  0.66179512  0.02605266  0.83861263    -0.20900
C329        C  0.66127754  0.96967129  0.83894089    -0.20900
C330        C  0.65688754  0.02861992  0.17247698    -0.20900
C331        C  0.65666195  0.97225681  0.17276619    -0.20900
C332        C  0.67001991  0.09810234  0.90796865    -0.16300
C333        C  0.66732338  0.09963318  0.10245694    -0.16300
C334        C  0.66676283  0.90033243  0.10356389    -0.16300
C335        C  0.66852666  0.89838661  0.90913560    -0.16300
H336        H  0.69989503  0.20225554  0.95258830     0.16600
H337        H  0.69842336  0.20308287  0.05712146     0.16600
H338        H  0.69800062  0.79475956  0.95523965     0.16600
H339        H  0.69718816  0.79583606  0.05985105     0.16600
H340        H  0.66119434  0.05176290  0.80346001     0.14900
H341        H  0.66022385  0.94355268  0.80408335     0.14900
H342        H  0.65538881  0.05476146  0.20730560     0.14900
H343        H  0.65495398  0.94654378  0.20788845     0.14900
H344        H  0.64789810  0.04448267  0.00527272     0.28200
H345        H  0.64690154  0.95367659  0.00572426     0.28200
C346        C  0.67568928  0.14130127  0.14292866    -0.11200
C347        C  0.68813197  0.17548379  0.17548044    -0.12800
C348        C  0.85502386  0.31435562  0.13749132    -0.11200
C349        C  0.82086016  0.30375062  0.17072657    -0.12800
C350        C  0.85492164  0.14412759  0.31237735    -0.11200
C351        C  0.82078179  0.17775741  0.30035554    -0.12800
C352        C  0.13661408  0.31704361  0.14034590    -0.11200
C353        C  0.17144288  0.30645287  0.17291912    -0.12800
C354        C  0.31796825  0.14133717  0.14372289    -0.11200
C355        C  0.30497123  0.17607170  0.17557290    -0.12800
C356        C  0.17195896  0.17812936  0.29923030    -0.11200
C357        C  0.13789181  0.14446759  0.31142511    -0.12800
C358        C  0.13492946  0.68460223  0.14174298    -0.11200
C359        C  0.16929275  0.69556643  0.17471785    -0.12800
C360        C  0.30284584  0.82549750  0.17772871    -0.11200
C361        C  0.31659699  0.85989522  0.14587586    -0.12800
C362        C  0.17141504  0.82494291  0.30217263    -0.11200
C363        C  0.13819725  0.85943491  0.31466195    -0.12800
C364        C  0.81907581  0.69802553  0.17219356    -0.11200
C365        C  0.85254602  0.68646779  0.13860252    -0.12800
C366        C  0.68848517  0.82669310  0.17813176    -0.11200
C367        C  0.67558668  0.85961196  0.14465593    -0.12800
C368        C  0.85600692  0.85931922  0.31413771    -0.11200
C369        C  0.82232670  0.82516793  0.30222923    -0.12800
C370        C  0.13959448  0.14108584  0.69626339    -0.11200
C371        C  0.17452001  0.17407212  0.70798840    -0.12800
C372        C  0.30688936  0.17203525  0.83426960    -0.11200
C373        C  0.31869013  0.13861551  0.86788564    -0.12800
C374        C  0.17514350  0.30197606  0.83370479    -0.11200
C375        C  0.13981393  0.31272844  0.86562290    -0.12800
C376        C  0.17395674  0.69615783  0.83384856    -0.10400
C377        C  0.13872185  0.68529095  0.86592745    -0.12800
C378        C  0.17623484  0.82747107  0.71067374    -0.11200
C379        C  0.14145722  0.86080447  0.69913561    -0.12800
C380        C  0.30816499  0.82398344  0.83686144    -0.11200
C381        C  0.32038984  0.85747361  0.87019218    -0.12800
C382        C  0.68978891  0.17336724  0.83387443    -0.11200
C383        C  0.67822584  0.13948441  0.86709263    -0.12800
C384        C  0.85417914  0.13968744  0.69412102    -0.11200
C385        C  0.81923932  0.17279276  0.70554706    -0.12800
C386        C  0.82282933  0.30238710  0.83008385    -0.11200
C387        C  0.85779748  0.31357364  0.86223769    -0.12800
C388        C  0.67669692  0.85662421  0.86864135    -0.11200
C389        C  0.68863540  0.82344469  0.83490842    -0.12800
C390        C  0.82119180  0.69490942  0.83071266    -0.11200
C391        C  0.85580839  0.68357439  0.86307787    -0.12800
C392        C  0.82075391  0.82619827  0.70794048    -0.11200
C393        C  0.85580442  0.85929400  0.69671040    -0.12800
C394        C  0.67644825  0.68196530  0.69207970    -0.11200
C395        C  0.64951934  0.65386683  0.66247514    -0.12800
C396        C  0.67552201  0.31791136  0.69352246    -0.11200
C397        C  0.64884606  0.34600156  0.66354726    -0.12800
C398        C  0.31921920  0.68163130  0.69452625    -0.11200
C399        C  0.34603891  0.65387510  0.66432883    -0.12800
C400        C  0.65124358  0.65297243  0.34540557    -0.11200
C401        C  0.67871379  0.68048739  0.31570265    -0.12800
C402        C  0.31983784  0.31726051  0.69420150    -0.11200
C403        C  0.34632690  0.34517706  0.66386427    -0.12800
C404        C  0.31396669  0.67869862  0.31499594    -0.11200
C405        C  0.34198128  0.65189053  0.34500802    -0.12800
C406        C  0.67805061  0.32314322  0.31223182    -0.11200
C407        C  0.65077830  0.34997690  0.34273318    -0.12800
C408        C  0.34302020  0.34921827  0.34397672    -0.11200
C409        C  0.31556207  0.32258890  0.31344505    -0.12800
loop_ 
_geom_bond_atom_site_label_1 
_geom_bond_atom_site_label_2 
_geom_bond_distance 
_geom_bond_site_symmetry_2 
_ccdc_geom_bond_type 
N1            N2   1.322       .  A
N1            N7   1.317       .  A
N1          Mn30   2.208       .  S
N2            C9   1.352       .  A
N3            N5   1.316       .  A
N3            N4   1.321       .  A
N3          Mn19   2.207       .  S
N4           C10   1.352       .  A
N5            N6   1.321       .  A
N5          Mn30   2.201       .  S
N6           C10   1.350       .  A
N7            N8   1.321       .  A
N7          Mn19   2.204       .  S
N8            C9   1.350       .  A
C9          C405   1.438       .  S
C10         C399   1.437       .  S
N11          N17   1.317       .  A
N11          N12   1.321       .  A
N11         Mn41   2.203       .  S
N12          C20   1.350       .  A
N13          N14   1.320       .  A
N13          N15   1.317       .  A
N13         Mn19   2.201       .  S
N14          C21   1.350       .  A
N15          N16   1.321       .  A
N15         Mn41   2.206       .  S
N16          C21   1.352       .  A
N17          N18   1.322       .  A
N17         Mn19   2.207       .  S
N18          C20   1.352       .  A
Mn19        Cl43   2.547       .  S
C20         C403   1.438       .  S
C21         C408   1.436       .  S
N22          N23   1.320       .  A
N22          N28   1.316       .  A
N22         Mn30   2.199       .  S
N23          C31   1.349       .  A
N24          N26   1.317       .  A
N24          N25   1.320       .  A
N24         Mn42   2.201       .  S
N25          C32   1.350       .  A
N26          N27   1.321       .  A
N26         Mn30   2.203       .  S
N27          C32   1.351       .  A
N28          N29   1.320       .  A
N28         Mn42   2.199       .  S
N29          C31   1.351       .  A
Mn30        Cl43   2.547       .  S
C31         C395   1.432       .  S
C32         C400   1.434       .  S
N33          N34   1.321       .  A
N33          N39   1.316       .  A
N33         Mn41   2.208       .  S
N34          C44   1.352       .  A
N35          N36   1.321       .  A
N35          N37   1.316       .  A
N35         Mn42   2.205       .  S
N36          C45   1.352       .  A
N37          N38   1.320       .  A
N37         Mn41   2.201       .  S
N38          C45   1.350       .  A
N39          N40   1.320       .  A
N39         Mn42   2.197       .  S
N40          C44   1.350       .  A
Mn41        Cl43   2.548       .  S
Mn42        Cl43   2.548       .  S
C44         C407   1.435       .  S
C45         C397   1.436       .  S
C46          C47   1.535       .  S
C46          C52   1.539       .  S
C46          C50   1.537       .  S
C46         C394   1.465       .  S
C47          H54   1.087       .  S
C47          C48   1.362       .  D
C48          C49   1.531       .  S
C48         C390   1.435       .  S
C49          C53   1.532       .  S
C49          C51   1.533       .  S
C49          H55   1.112       .  S
C50          H56   1.086       .  S
C50          C51   1.364       .  D
C51         C389   1.440       .  S
C52          H57   1.086       .  S
C52          C53   1.364       .  D
C53         C392   1.441       .  S
C58          C59   1.538       .  S
C58          C64   1.537       .  S
C58          C62   1.538       .  S
C58         C396   1.468       .  S
C59          H66   1.086       .  S
C59          C60   1.364       .  D
C60          C61   1.531       .  S
C60         C385   1.439       .  S
C61          C65   1.532       .  S
C61          C63   1.533       .  S
C61          H67   1.112       .  S
C62          H68   1.086       .  S
C62          C63   1.365       .  D
C63         C382   1.441       .  S
C64          H69   1.086       .  S
C64          C65   1.363       .  D
C65         C386   1.438       .  S
C70          C71   1.537       .  S
C70          C76   1.539       .  S
C70          C74   1.538       .  S
C70         C398   1.470       .  S
C71          H78   1.086       .  S
C71          C72   1.364       .  D
C72          C73   1.533       .  S
C72         C380   1.440       .  S
C73          C77   1.532       .  S
C73          C75   1.532       .  S
C73          H79   1.112       .  S
C74          H80   1.086       .  S
C74          C75   1.364       .  D
C75         C376   1.440       .  S
C76          H81   1.086       .  S
C76          C77   1.364       .  D
C77         C378   1.442       .  S
C82          C83   1.538       .  S
C82          C88   1.538       .  S
C82          C86   1.539       .  S
C82         C402   1.470       .  S
C83          H90   1.086       .  S
C83          C84   1.364       .  D
C84          C85   1.531       .  S
C84         C374   1.438       .  S
C85          C89   1.531       .  S
C85          C87   1.533       .  S
C85          H91   1.112       .  S
C86          H92   1.086       .  S
C86          C87   1.365       .  D
C87         C372   1.442       .  S
C88          H93   1.086       .  S
C88          C89   1.363       .  D
C89         C371   1.439       .  S
N94          C99   1.354       .  A
N94          C98   1.354   1_655  A
N94         H126   1.038       .  S
N95         C102   1.351   1_545  A
N95         C103   1.351       .  A
N96         C101   1.354       .  A
N96         C100   1.354   1_655  A
N96         H127   1.038       .  S
N97         C104   1.351       .  A
N97         C105   1.351   1_565  A
C98         C106   1.388       .  A
C98         C114   1.415       .  A
C99         C115   1.415       .  A
C99         C107   1.388       .  A
C100        C108   1.388       .  A
C100        C117   1.414       .  A
C101        C116   1.414       .  A
C101        C109   1.388       .  A
C102        C114   1.411       .  A
C102        C110   1.387       .  A
C103        C117   1.411       .  A
C103        C111   1.387       .  A
C104        C112   1.387       .  A
C104        C115   1.411       .  A
C105        C113   1.387       .  A
C105        C116   1.411       .  A
C106        C107   1.376   1_455  A
C106        H118   1.083       .  S
C107        H119   1.083       .  S
C108        C109   1.375   1_455  A
C108        H120   1.083       .  S
C109        H121   1.083       .  S
C110        C111   1.373   1_565  A
C110        H122   1.082       .  S
C111        H123   1.082       .  S
C112        C113   1.373   1_565  A
C112        H124   1.082       .  S
C113        H125   1.082       .  S
C114        C379   1.452       .  S
C115        C393   1.450       .  S
C116        C384   1.449       .  S
C117        C370   1.449       .  S
C128        C129   1.535       .  S
C128        C134   1.537       .  S
C128        C132   1.538       .  S
C128        C401   1.466       .  S
C129        H136   1.087       .  S
C129        C130   1.362       .  D
C130        C131   1.532       .  S
C130        C366   1.436       .  S
C131        C135   1.532       .  S
C131        C133   1.532       .  S
C131        H137   1.112       .  S
C132        H138   1.086       .  S
C132        C133   1.364       .  D
C133        C364   1.440       .  S
C134        H139   1.087       .  S
C134        C135   1.363       .  D
C135        C369   1.438       .  S
C140        C141   1.539       .  S
C140        C146   1.538       .  S
C140        C144   1.536       .  S
C140        C404   1.470       .  S
C141        H148   1.086       .  S
C141        C142   1.366       .  D
C142        C143   1.534       .  S
C142        C359   1.442       .  S
C143        C147   1.532       .  S
C143        C145   1.534       .  S
C143        H149   1.112       .  S
C144        H150   1.086       .  S
C144        C145   1.363       .  D
C145        C360   1.439       .  S
C146        H151   1.086       .  S
C146        C147   1.364       .  D
C147        C362   1.441       .  S
N152        C157   1.354       .  A
N152        C156   1.354   1_554  A
N152        H184   1.034       .  S
N153        C160   1.352   1_655  A
N153        C161   1.351       .  A
N154        C159   1.354       .  A
N154        C158   1.353   1_554  A
N154        H185   1.035       .  S
N155        C162   1.352   1_655  A
N155        C163   1.352       .  A
C156        C164   1.388       .  A
C156        C172   1.416       .  A
C157        C173   1.417       .  A
C157        C165   1.388       .  A
C158        C166   1.389       .  A
C158        C175   1.415       .  A
C159        C174   1.415       .  A
C159        C167   1.388       .  A
C160        C172   1.414       .  A
C160        C168   1.387       .  A
C161        C175   1.413       .  A
C161        C169   1.387       .  A
C162        C170   1.387       .  A
C162        C173   1.415       .  A
C163        C171   1.387       .  A
C163        C174   1.413       .  A
C164        C165   1.374   1_556  A
C164        H176   1.083       .  S
C165        H177   1.082       .  S
C166        C167   1.373   1_556  A
C166        H178   1.083       .  S
C167        H179   1.083       .  S
C168        C169   1.373   1_455  A
C168        H180   1.082       .  S
C169        H181   1.083       .  S
C170        C171   1.373   1_455  A
C170        H182   1.082       .  S
C171        H183   1.082       .  S
C172        C377   1.451       .  S
C173        C358   1.452       .  S
C174        C365   1.451       .  S
C175        C391   1.446       .  S
C186        C187   1.537       .  S
C186        C192   1.537       .  S
C186        C190   1.538       .  S
C186        C409   1.468       .  S
C187        H194   1.086       .  S
C187        C188   1.363       .  D
C188        C189   1.534       .  S
C188        C355   1.441       .  S
C189        C193   1.531       .  S
C189        C191   1.533       .  S
C189        H195   1.112       .  S
C190        H196   1.086       .  S
C190        C191   1.365       .  D
C191        C353   1.441       .  S
C192        H197   1.087       .  S
C192        C193   1.363       .  D
C193        C356   1.438       .  S
N198        C203   1.354       .  A
N198        C202   1.354   1_545  A
N198        H230   1.032       .  S
N199        C206   1.351       .  A
N199        C207   1.352   1_655  A
N200        C205   1.353       .  A
N200        C204   1.354   1_545  A
N200        H231   1.028       .  S
N201        C208   1.351       .  A
N201        C209   1.351   1_655  A
C202        C210   1.388       .  A
C202        C218   1.417       .  A
C203        C219   1.417       .  A
C203        C211   1.388       .  A
C204        C212   1.388       .  A
C204        C221   1.419       .  A
C205        C220   1.419       .  A
C205        C213   1.389       .  A
C206        C218   1.414       .  A
C206        C214   1.387       .  A
C207        C221   1.415       .  A
C207        C215   1.387       .  A
C208        C216   1.387       .  A
C208        C219   1.414       .  A
C209        C217   1.388       .  A
C209        C220   1.416       .  A
C210        C211   1.373   1_565  A
C210        H222   1.082       .  S
C211        H223   1.083       .  S
C212        C213   1.374   1_565  A
C212        H224   1.082       .  S
C213        H225   1.082       .  S
C214        C215   1.372   1_655  A
C214        H226   1.082       .  S
C215        H227   1.082       .  S
C216        C217   1.372   1_655  A
C216        H228   1.083       .  S
C217        H229   1.082       .  S
C218        C368   1.449       .  S
C219        C350   1.448       .  S
C220        C357   1.449       .  S
C221        C363   1.451       .  S
N232        C237   1.354   1_554  A
N232        C236   1.354       .  A
N232        H264   1.037       .  S
N233        C240   1.351   1_545  A
N233        C241   1.351       .  A
N234        C239   1.355   1_554  A
N234        C238   1.354       .  A
N234        H265   1.037       .  S
N235        C242   1.351       .  A
N235        C243   1.351   1_565  A
C236        C244   1.389       .  A
C236        C252   1.416       .  A
C237        C253   1.415       .  A
C237        C245   1.388       .  A
C238        C246   1.388       .  A
C238        C255   1.416       .  A
C239        C254   1.415       .  A
C239        C247   1.387       .  A
C240        C252   1.413       .  A
C240        C248   1.387       .  A
C241        C255   1.413       .  A
C241        C249   1.387       .  A
C242        C250   1.387       .  A
C242        C253   1.412       .  A
C243        C251   1.387       .  A
C243        C254   1.411       .  A
C244        C245   1.373   1_554  A
C244        H256   1.083       .  S
C245        H257   1.083       .  S
C246        C247   1.374   1_554  A
C246        H258   1.083       .  S
C247        H259   1.082       .  S
C248        C249   1.374   1_565  A
C248        H260   1.083       .  S
C249        H261   1.083       .  S
C250        C251   1.373   1_565  A
C250        H262   1.082       .  S
C251        H263   1.082       .  S
C252        C361   1.450       .  S
C253        C381   1.450       .  S
C254        C373   1.452       .  S
C255        C354   1.451       .  S
N266        C271   1.353   1_554  A
N266        C270   1.354       .  A
N266        H298   1.039       .  S
N267        C274   1.351       .  A
N267        C275   1.351   1_655  A
N268        C273   1.353   1_554  A
N268        C272   1.353       .  A
N268        H299   1.038       .  S
N269        C276   1.351       .  A
N269        C277   1.351   1_655  A
C270        C278   1.388       .  A
C270        C286   1.414       .  A
C271        C287   1.413       .  A
C271        C279   1.388       .  A
C272        C280   1.388       .  A
C272        C289   1.413       .  A
C273        C288   1.412       .  A
C273        C281   1.388       .  A
C274        C286   1.411       .  A
C274        C282   1.387       .  A
C275        C289   1.411       .  A
C275        C283   1.386       .  A
C276        C284   1.387       .  A
C276        C287   1.410       .  A
C277        C285   1.387       .  A
C277        C288   1.411       .  A
C278        C279   1.374   1_554  A
C278        H290   1.083       .  S
C279        H291   1.083       .  S
C280        C281   1.374   1_554  A
C280        H292   1.083       .  S
C281        H293   1.083       .  S
C282        C283   1.374   1_655  A
C282        H294   1.082       .  S
C283        H295   1.082       .  S
C284        C285   1.374   1_655  A
C284        H296   1.082       .  S
C285        H297   1.082       .  S
C286        C348   1.450       .  S
C287        C387   1.448       .  S
C288        C375   1.448       .  S
C289        C352   1.450       .  S
C300        C301   1.539       .  S
C300        C306   1.537       .  S
C300        C304   1.537       .  S
C300        C406   1.467       .  S
C301        H308   1.086       .  S
C301        C302   1.365       .  D
C302        C303   1.532       .  S
C302        C349   1.441       .  S
C303        C307   1.531       .  S
C303        C305   1.532       .  S
C303        H309   1.112       .  S
C304        H310   1.086       .  S
C304        C305   1.363       .  D
C305        C347   1.439       .  S
C306        H311   1.087       .  S
C306        C307   1.362       .  D
C307        C351   1.437       .  S
N312        C317   1.355       .  A
N312        C316   1.354   1_554  A
N312        H344   1.034       .  S
N313        C320   1.352   1_565  A
N313        C321   1.352       .  A
N314        C319   1.354       .  A
N314        C318   1.354   1_554  A
N314        H345   1.034       .  S
N315        C322   1.352   1_565  A
N315        C323   1.351       .  A
C316        C324   1.388       .  A
C316        C332   1.417       .  A
C317        C333   1.417       .  A
C317        C325   1.388       .  A
C318        C326   1.388       .  A
C318        C335   1.417       .  A
C319        C334   1.417       .  A
C319        C327   1.389       .  A
C320        C332   1.415       .  A
C320        C328   1.387       .  A
C321        C335   1.415       .  A
C321        C329   1.387       .  A
C322        C330   1.387       .  A
C322        C333   1.413       .  A
C323        C331   1.388       .  A
C323        C334   1.413       .  A
C324        C325   1.373   1_556  A
C324        H336   1.082       .  S
C325        H337   1.083       .  S
C326        C327   1.374   1_556  A
C326        H338   1.083       .  S
C327        H339   1.083       .  S
C328        C329   1.371   1_545  A
C328        H340   1.082       .  S
C329        H341   1.082       .  S
C330        C331   1.371   1_545  A
C330        H342   1.082       .  S
C331        H343   1.083       .  S
C332        C383   1.452       .  S
C333        C346   1.450       .  S
C334        C367   1.447       .  S
C335        C388   1.451       .  S
C346        C347   1.205       .  T
C348        C349   1.206       .  T
C350        C351   1.204       .  T
C352        C353   1.206       .  T
C354        C355   1.206       .  T
C356        C357   1.204       .  T
C358        C359   1.207       .  T
C360        C361   1.205       .  T
C362        C363   1.206       .  T
C364        C365   1.206       .  T
C366        C367   1.203       .  T
C368        C369   1.204       .  T
C370        C371   1.205       .  T
C372        C373   1.207       .  T
C374        C375   1.204       .  T
C376        C377   1.206       .  T
C378        C379   1.207       .  T
C380        C381   1.206       .  T
C382        C383   1.206       .  T
C384        C385   1.205       .  T
C386        C387   1.204       .  T
C388        C389   1.206       .  T
C390        C391   1.203       .  T
C392        C393   1.206       .  T
C394        C395   1.204       .  T
C396        C397   1.206       .  T
C398        C399   1.207       .  T
C400        C401   1.205       .  T
C402        C403   1.207       .  T
C404        C405   1.207       .  T
C406        C407   1.206       .  T
C408        C409   1.206       .  T
