geometry optimzed in LAMMPS
_audit_creation_date              2020-12-01 
_audit_creation_method            'lammps2cif' 
_symmetry_space_group_name_H-M    'P1' 
_symmetry_Int_Tables_number       1 
_symmetry_cell_setting            triclinic 
loop_ 
_symmetry_equiv_pos_as_xyz 
  x,y,z 
_cell_length_a                    45.81566274 
_cell_length_b                    45.5717817909383 
_cell_length_c                    46.43533094316112 
_cell_angle_alpha                 89.88196814294785 
_cell_angle_beta                  89.51235332588848 
_cell_angle_gamma                 89.92889712785994 
loop_ 
_atom_site_label 
_atom_site_type_symbol 
_atom_site_fract_x 
_atom_site_fract_y 
_atom_site_fract_z 
_atom_site_charge 
O1          O  0.46758635  0.53348191  0.62582147    -0.70600
O2          O  0.52836962  0.47729910  0.62235535    -0.70800
O3          O  0.47015515  0.47540865  0.61667758    -0.70700
O4          O  0.52532733  0.53518951  0.63149038    -0.70700
O5          O  0.52254471  0.52615192  0.67736999    -0.70700
O6          O  0.46388382  0.46864521  0.66256015    -0.70700
O7          O  0.52221026  0.46750783  0.66783608    -0.70600
O8          O  0.46343364  0.52692302  0.67203855    -0.70800
V9          V  0.49775338  0.50514044  0.62503175     1.35200
V10         V  0.49314315  0.49752665  0.66915265     1.35200
C11         C  0.45531266  0.54003277  0.64940047     0.78600
C12         C  0.53534688  0.46251415  0.64427790     0.78700
C13         C  0.45732715  0.46193146  0.63696801     0.78600
C14         C  0.53361749  0.54078073  0.65676425     0.78500
O15         O  0.71254228  0.52016397  0.43827011    -0.70600
O16         O  0.71372152  0.46568920  0.37680114    -0.70800
O17         O  0.71970111  0.46198594  0.43362918    -0.70700
O18         O  0.70698931  0.52440700  0.38090826    -0.70700
O19         O  0.75374093  0.52833460  0.37421667    -0.70700
O20         O  0.76640344  0.47017485  0.43164382    -0.70700
O21         O  0.76089103  0.46952081  0.37352696    -0.70600
O22         O  0.75872421  0.52901265  0.43174640    -0.70800
V23         V  0.71415968  0.49324784  0.40726922     1.35200
V24         V  0.75911384  0.49908483  0.40285709     1.35200
C25         C  0.73511041  0.53429858  0.44516324     0.78600
C26         C  0.73742596  0.45756143  0.36524355     0.78700
C27         C  0.74517195  0.45574319  0.44191617     0.78600
C28         C  0.72823019  0.53697814  0.36838536     0.78500
O29         O  0.46541662  0.71269585  0.43136410    -0.70600
O30         O  0.53026366  0.72276783  0.38163449    -0.70800
O31         O  0.52317225  0.71416270  0.43804302    -0.70700
O32         O  0.47227471  0.72171589  0.37438108    -0.70700
O33         O  0.46758666  0.76831469  0.38297472    -0.70700
O34         O  0.52346190  0.76144340  0.44322088    -0.70700
O35         O  0.52667050  0.77014239  0.38543114    -0.70600
O36         O  0.46471947  0.75936975  0.44049563    -0.70800
V37         V  0.49765769  0.71881698  0.40642917     1.35200
V38         V  0.49565538  0.76402150  0.41287080     1.35200
C39         C  0.45465578  0.73391538  0.44535034     0.78600
C40         C  0.53950364  0.74792925  0.37482075     0.78700
C41         C  0.53243100  0.73645309  0.45129600     0.78600
C42         C  0.46085954  0.74616174  0.36804242     0.78500
O43         O  0.21200673  0.52487169  0.42165974    -0.70600
O44         O  0.22188044  0.46397067  0.36572897    -0.70800
O45         O  0.21923438  0.46611579  0.42402677    -0.70700
O46         O  0.21474748  0.52302123  0.36314775    -0.70700
O47         O  0.26210786  0.52563407  0.36288371    -0.70700
O48         O  0.26560950  0.47513049  0.42726017    -0.70700
O49         O  0.26890977  0.46836965  0.36970677    -0.70600
O50         O  0.25870732  0.53283431  0.42006517    -0.70800
V51         V  0.21772728  0.49461088  0.39364129     1.35200
V52         V  0.26283763  0.50032045  0.39501667     1.35200
C53         C  0.23385451  0.53942835  0.43014024     0.78600
C54         C  0.24731264  0.45601706  0.35816376     0.78700
C55         C  0.24332353  0.46171278  0.43656885     0.78600
C56         C  0.23806404  0.53322048  0.35213847     0.78500
O57         O  0.52629213  0.27741788  0.42200386    -0.70600
O58         O  0.46246695  0.27032672  0.37173989    -0.70800
O59         O  0.46892351  0.27085360  0.42890851    -0.70700
O60         O  0.52007374  0.27638941  0.36446739    -0.70700
O61         O  0.52974333  0.22985844  0.36826919    -0.70700
O62         O  0.46993027  0.22334586  0.42544055    -0.70700
O63         O  0.47117494  0.22369499  0.36712011    -0.70600
O64         O  0.52844094  0.23011504  0.42657958    -0.70800
V65         V  0.49459622  0.27285331  0.39676222     1.35200
V66         V  0.49973213  0.22748630  0.39685832     1.35200
C67         C  0.53742809  0.25528125  0.43407847     0.78600
C68         C  0.45653774  0.24616941  0.35995212     0.78700
C69         C  0.46007686  0.24611139  0.43769661     0.78600
C70         C  0.53408662  0.25413663  0.35572392     0.78500
O71         O  0.47631053  0.52927566  0.13295688    -0.70600
O72         O  0.53725792  0.47386426  0.11786308    -0.70800
O73         O  0.47862889  0.47040230  0.12529909    -0.70700
O74         O  0.53481041  0.53256476  0.12568016    -0.70700
O75         O  0.53887800  0.52729421  0.17191608    -0.70700
O76         O  0.48629050  0.46337816  0.17081661    -0.70700
O77         O  0.54423287  0.46987909  0.16392159    -0.70600
O78         O  0.48098658  0.52146785  0.17877337    -0.70800
V79         V  0.50681107  0.50139084  0.12625346     1.35200
V80         V  0.51240808  0.49557909  0.17039594     1.35200
C81         C  0.46820128  0.53478780  0.15854219     0.78600
C82         C  0.55178116  0.46329319  0.13851586     0.78700
C83         C  0.47307343  0.45609093  0.14813918     0.78600
C84         C  0.54642263  0.54049354  0.14909377     0.78500
C85         C  0.67791977  0.67976829  0.60102601    -0.01300
C86         C  0.82086096  0.81134244  0.71482839    -0.01300
C87         C  0.68658307  0.31367726  0.58204048    -0.01300
C88         C  0.81717074  0.18871351  0.71450716    -0.01300
C89         C  0.29360251  0.66915641  0.58310424    -0.01300
C90         C  0.18784025  0.81213534  0.72133568    -0.01300
C91         C  0.67903368  0.69125719  0.21850284    -0.01300
C92         C  0.81913957  0.82289600  0.09838382     0.07500
C93         C  0.31398446  0.30580845  0.57381712    -0.01300
C94         C  0.18366859  0.18358822  0.71086021    -0.01300
C95         C  0.31925463  0.68807012  0.22353222    -0.01300
C96         C  0.20021737  0.82010622  0.08564872    -0.01300
C97         C  0.68224639  0.31840478  0.20628869    -0.01300
C98         C  0.82034742  0.19156424  0.07784303    -0.01300
C99         C  0.32107524  0.31278474  0.20732314    -0.01300
C100        C  0.18314805  0.19818832  0.07364757    -0.01300
O101        O  0.23219474  0.97642135  0.86741149    -0.70600
O102        O  0.23120715  0.02416509  0.93387148    -0.70800
O103        O  0.22945599  0.03440738  0.87720996    -0.70700
O104        O  0.23431099  0.96629614  0.92442981    -0.70700
O105        O  0.28104848  0.97294461  0.92789818    -0.70700
O106        O  0.27640051  0.03302512  0.87048554    -0.70700
O107        O  0.27765056  0.03225526  0.92863030    -0.70600
O108        O  0.27942237  0.97359952  0.86945147    -0.70800
V109        V  0.23266539  0.00033580  0.90065599     1.35200
V110        V  0.27793369  0.00285600  0.89912865     1.35200
C111        C  0.25577281  0.96582971  0.85765099     0.78600
C112        C  0.25387399  0.03750900  0.94184519     0.78700
C113        C  0.25202586  0.04489330  0.86513141     0.78600
C114        C  0.25840206  0.95884585  0.93544682     0.78500
O115        O  0.02962263  0.28562694  0.92184477    -0.70600
O116        O  0.96992228  0.28207440  0.86493350    -0.70800
O117        O  0.97040419  0.28519857  0.92292899    -0.70700
O118        O  0.02894773  0.28258353  0.86379699    -0.70700
O119        O  0.03355039  0.23574331  0.87134829    -0.70700
O120        O  0.96683442  0.23777202  0.92043612    -0.70700
O121        O  0.97543027  0.23477753  0.86334363    -0.70600
O122        O  0.02495398  0.23866643  0.92839597    -0.70800
V123        V  0.99974393  0.28313415  0.89343540     1.35200
V124        V  0.00018638  0.23758498  0.89584509     1.35200
C125        C  0.03680495  0.26262280  0.93544389     0.78600
C126        C  0.96319396  0.25766974  0.85378346     0.78700
C127        C  0.95770075  0.26178778  0.93078591     0.78600
C128        C  0.04197162  0.25867148  0.85836193     0.78500
O129        O  0.03223915  0.96945297  0.12735848    -0.70600
O130        O  0.97051103  0.02440803  0.12631974    -0.70800
O131        O  0.02868868  0.02795769  0.12034350    -0.70700
O132        O  0.97475831  0.96625816  0.13363713    -0.70700
O133        O  0.97643353  0.97440516  0.17968411    -0.70700
O134        O  0.03514942  0.03252619  0.16632868    -0.70700
O135        O  0.97638947  0.03342399  0.17179896    -0.70600
O136        O  0.03543030  0.97332876  0.17383005    -0.70800
V137        V  0.00169324  0.99725587  0.12787993     1.35200
V138        V  0.00581715  0.00329869  0.17214329     1.35200
C139        C  0.04347599  0.96089859  0.15063003     0.78600
C140        C  0.96296811  0.03854674  0.14852336     0.78700
C141        C  0.04140239  0.04068996  0.14093343     0.78600
C142        C  0.96614311  0.95998648  0.15881243     0.78500
O143        O  0.72611052  0.96718239  0.87022219    -0.70600
O144        O  0.73483604  0.02556049  0.92870646    -0.70800
O145        O  0.73049163  0.02661673  0.87030068    -0.70700
O146        O  0.73059157  0.96648699  0.92847802    -0.70700
O147        O  0.77776054  0.96376327  0.92433687    -0.70700
O148        O  0.77747548  0.02166973  0.86599468    -0.70700
O149        O  0.78183821  0.02228127  0.92369852    -0.70600
O150        O  0.77335185  0.96330608  0.86735441    -0.70800
V151        V  0.73130183  0.99644221  0.89931021     1.35200
V152        V  0.77657698  0.99296011  0.89545592     1.35200
C153        C  0.74848136  0.95497750  0.85936566     0.78600
C154        C  0.76005805  0.03362737  0.93635661     0.78700
C155        C  0.75417101  0.03380649  0.85780822     0.78600
C156        C  0.75447096  0.95481501  0.93610119     0.78500
O157        O  0.03021374  0.96754244  0.62710995    -0.70600
O158        O  0.97125244  0.02753510  0.62349403    -0.70800
O159        O  0.03024065  0.02671006  0.62566904    -0.70700
O160        O  0.97099110  0.96819438  0.62432785    -0.70700
O161        O  0.97397421  0.96452621  0.67085725    -0.70700
O162        O  0.02250844  0.03216899  0.67156615    -0.70700
O163        O  0.96480661  0.02252979  0.66962822    -0.70600
O164        O  0.03174717  0.97423689  0.67336997    -0.70800
V165        V  0.00060292  0.99746621  0.62582809     1.35200
V166        V  0.99828387  0.99830744  0.67052420     1.35200
C167        C  0.04209136  0.96202972  0.65113293     0.78600
C168        C  0.95736740  0.03448978  0.64626460     0.78700
C169        C  0.03568623  0.04017294  0.64880301     0.78600
C170        C  0.96305851  0.95572262  0.64746020     0.78500
O171        O  0.03495807  0.78341390  0.93765826    -0.70600
O172        O  0.98129908  0.78432527  0.87638496    -0.70800
O173        O  0.97706568  0.78706209  0.93375324    -0.70700
O174        O  0.03967873  0.78030934  0.88021692    -0.70700
O175        O  0.03425390  0.73297985  0.87971299    -0.70700
O176        O  0.97573209  0.73971024  0.93834610    -0.70700
O177        O  0.97537306  0.73727099  0.88015544    -0.70600
O178        O  0.03464091  0.73579930  0.93813399    -0.70800
V179        V  0.00820829  0.78279214  0.90698643     1.35200
V180        V  0.00509438  0.73723776  0.90904233     1.35200
C181        C  0.04420909  0.75970831  0.94834932     0.78600
C182        C  0.96841117  0.76133111  0.86822861     0.78700
C183        C  0.96607989  0.76465245  0.94573374     0.78600
C184        C  0.04734235  0.75557796  0.87040377     0.78500
C185        C  0.15379157  0.23949467  0.00650217    -0.27000
C186        C  0.12913440  0.25299017  0.01848177     0.06600
C187        C  0.12697805  0.25540038  0.04857812     0.26200
C188        C  0.14730098  0.24111098  0.06621383    -0.11500
C189        C  0.16813778  0.22171726  0.05411983    -0.25500
C190        C  0.17351480  0.22451670  0.02398923     0.37000
C191        C  0.10396315  0.25949601  0.99965879     0.06600
F192        F  0.10405719  0.26968121  0.06085664    -0.19300
H193        H  0.14416736  0.24187000  0.08934734     0.16400
F194        F  0.19717300  0.21232927  0.01090748    -0.23000
H195        H  0.15669092  0.23869717  0.98333374     0.18200
C196        C  0.10615807  0.27930786  0.97647871     0.26200
C197        C  0.08349347  0.28148979  0.95639557    -0.11500
C198        C  0.05886718  0.26318640  0.95859312    -0.25500
C199        C  0.05660042  0.24373994  0.98207264     0.37100
C200        C  0.07876347  0.24223905  0.00252653    -0.27200
F201        F  0.13053794  0.29583984  0.97284411    -0.19300
H202        H  0.08584429  0.29640928  0.93833683     0.16400
F203        F  0.03316496  0.22574490  0.98497806    -0.23000
H204        H  0.07693992  0.22642243  0.01990696     0.18200
C205        C  0.19573728  0.13582872  0.01887208    -0.27000
C206        C  0.22532512  0.12908703  0.02174147     0.06600
C207        C  0.24227339  0.14566060  0.04080950     0.26200
C208        C  0.22935275  0.16802318  0.05746344    -0.11500
C209        C  0.19932629  0.17491252  0.05481165    -0.25500
C210        C  0.18286026  0.15803864  0.03503615     0.37000
C211        C  0.23731118  0.10400739  0.00506106     0.06600
F212        F  0.27102815  0.13948950  0.04413859    -0.19300
H213        H  0.24292579  0.17917120  0.07285269     0.16400
F214        F  0.15401403  0.16322591  0.03095158    -0.23000
H215        H  0.18234132  0.12360843  0.00397850     0.18200
C216        C  0.22327542  0.07663133  0.00663909     0.26200
C217        C  0.23023532  0.05453997  0.98702007    -0.11500
C218        C  0.25150247  0.05906248  0.96554158    -0.25500
C219        C  0.26712732  0.08565564  0.96517414     0.37100
C220        C  0.25996821  0.10802087  0.98482815    -0.27200
F221        F  0.20177535  0.07175263  0.02637949    -0.19300
H222        H  0.21810262  0.03415772  0.98791134     0.16400
F223        F  0.28750733  0.09093937  0.94443451    -0.23000
H224        H  0.27085751  0.12904140  0.98311185     0.18200
C225        C  0.09671380  0.10275443  0.15034673    -0.27000
C226        C  0.10141081  0.11133589  0.12160392     0.06600
C227        C  0.08711227  0.09600748  0.09962117     0.26200
C228        C  0.06802199  0.07309705  0.10624608    -0.11500
C229        C  0.06265048  0.06470422  0.13494964    -0.25500
C230        C  0.07736763  0.07974986  0.15707461     0.37000
C231        C  0.12102357  0.13618789  0.11404865     0.06600
F232        F  0.09191284  0.10298462  0.07153910    -0.19300
H233        H  0.05731275  0.06195525  0.08868697     0.16400
F234        F  0.07296460  0.07249648  0.18513766    -0.23000
H235        H  0.10764707  0.11421625  0.16758248     0.18200
C236        C  0.11072061  0.15927069  0.09696314     0.26200
C237        C  0.12996165  0.17988464  0.08526556    -0.11500
C238        C  0.16037200  0.17893908  0.09079257    -0.25500
C239        C  0.17019491  0.15603387  0.10923702     0.37100
C240        C  0.15073481  0.13527889  0.12082646    -0.27200
F241        F  0.08198926  0.16099462  0.09018452    -0.19300
H242        H  0.12054495  0.19476614  0.06992655     0.16400
F243        F  0.19905138  0.15266700  0.11477938    -0.23000
H244        H  0.15919392  0.11744030  0.13376686     0.18200
C245        C  0.24474692  0.24989585  0.10043310    -0.27000
C246        C  0.24153693  0.24865207  0.13042375     0.06600
C247        C  0.21884206  0.23177569  0.14222629     0.26200
C248        C  0.19976314  0.21635467  0.12433477    -0.11500
C249        C  0.20371029  0.21579158  0.09402033    -0.25500
C250        C  0.22630392  0.23371423  0.08246082     0.37000
C251        C  0.26198854  0.26474136  0.14940403     0.06600
F252        F  0.21482317  0.23057513  0.17120408    -0.19300
H253        H  0.18183443  0.20510863  0.13472832     0.16400
F254        F  0.23089728  0.23541368  0.05362618    -0.23000
H255        H  0.26198511  0.26305393  0.09089822     0.18200
C256        C  0.28194104  0.24940275  0.16650399     0.26200
C257        C  0.30107239  0.26449713  0.18458756    -0.11500
C258        C  0.30005009  0.29546224  0.18728046    -0.25500
C259        C  0.28029804  0.31066292  0.16914057     0.37100
C260        C  0.26166180  0.29545741  0.15054262    -0.27200
F261        F  0.28333054  0.21967253  0.16527309    -0.19300
H262        H  0.31681427  0.25144857  0.19609550     0.16400
F263        F  0.27856814  0.34038230  0.16977412    -0.23000
H264        H  0.24656980  0.30770493  0.13728779     0.18200
C265        C  0.74776771  0.08796812  0.99809423    -0.27000
C266        C  0.77613244  0.09912924  0.00134336     0.06600
C267        C  0.79887225  0.08746775  0.98441891     0.26200
C268        C  0.79321968  0.06621773  0.96372777    -0.11500
C269        C  0.76477864  0.05573645  0.95936474    -0.25500
C270        C  0.74202830  0.06641526  0.97720720     0.37000
C271        C  0.78238139  0.12425820  0.02062150     0.06600
F272        F  0.82671576  0.09700583  0.98766214    -0.19300
H273        H  0.81131531  0.05824315  0.95077930     0.16400
F274        F  0.71436820  0.05623371  0.97444649    -0.23000
H275        H  0.72999490  0.09654202  0.01111802     0.18200
C276        C  0.79551731  0.14935966  0.00902619     0.26200
C277        C  0.80690961  0.17091461  0.02688417    -0.11500
C278        C  0.80410204  0.16952205  0.05731461    -0.25500
C279        C  0.78978728  0.14418970  0.06868797     0.37100
C280        C  0.77899444  0.12210550  0.05055086    -0.27200
F281        F  0.79889054  0.15228651  0.98006793    -0.19300
H282        H  0.81954086  0.18738263  0.01593938     0.16400
F283        F  0.78767786  0.13990984  0.09757719    -0.23000
H284        H  0.76934626  0.10259953  0.05997972     0.18200
C285        C  0.84020224  0.24937231  0.01927057    -0.27000
C286        C  0.87083958  0.24871047  0.01989968     0.06600
C287        C  0.88455102  0.23544342  0.04336527     0.26200
C288        C  0.86829528  0.21919103  0.06327900    -0.11500
C289        C  0.83776644  0.21537179  0.06019354    -0.25500
C290        C  0.82370903  0.23422330  0.04025103     0.37000
C291        C  0.88881141  0.25662980  0.99432738     0.06600
F292        F  0.91406860  0.23600503  0.04563691    -0.19300
H293        H  0.88022850  0.20878222  0.08046663     0.16400
F294        F  0.79415112  0.23453842  0.03836965    -0.23000
H295        H  0.82912550  0.26029267  0.00173212     0.18200
C296        C  0.88965660  0.23730362  0.97080771     0.26200
C297        C  0.91159545  0.23978863  0.94982454    -0.11500
C298        C  0.93282711  0.26193217  0.95149587    -0.25500
C299        C  0.93083143  0.28255410  0.97399574     0.37100
C300        C  0.90922109  0.27959439  0.99547647    -0.27200
F301        F  0.87058397  0.21458494  0.96933798    -0.19300
H302        H  0.91246915  0.22380398  0.93259945     0.16400
F303        F  0.95093320  0.30424417  0.97637251    -0.23000
H304        H  0.90920926  0.29438673  0.01370332     0.18200
C305        C  0.86174030  0.14589061  0.13693027    -0.27000
C306        C  0.88055695  0.12908962  0.11954660     0.06600
C307        C  0.88066106  0.13389692  0.08974760     0.26200
C308        C  0.86190292  0.15442410  0.07755510    -0.11500
C309        C  0.84216373  0.17127000  0.09442113    -0.25500
C310        C  0.84251853  0.16653552  0.12471951     0.37000
C311        C  0.89890777  0.10517954  0.13168276     0.06600
F312        F  0.89889199  0.11845789  0.07222291    -0.19300
H313        H  0.86252318  0.15703111  0.05436392     0.16400
F314        F  0.82370861  0.18039020  0.14278715    -0.23000
H315        H  0.86114010  0.14220838  0.15997689     0.18200
C316        C  0.92150811  0.11082526  0.15128222     0.26200
C317        C  0.94144809  0.08850526  0.15857259    -0.11500
C318        C  0.93910324  0.06043792  0.14625278    -0.25500
C319        C  0.91527841  0.05445808  0.12828942     0.37100
C320        C  0.89547534  0.07656526  0.12115826    -0.27200
F321        F  0.92548581  0.13830460  0.16173370    -0.19300
H322        H  0.95969052  0.09363684  0.17235504     0.16400
F323        F  0.91165889  0.02731891  0.11685353    -0.23000
H324        H  0.87796277  0.07161914  0.10640816     0.18200
C325        C  0.71022500  0.26084631  0.15086329    -0.27000
C326        C  0.74049519  0.25904995  0.15580064     0.06600
C327        C  0.75136282  0.27526365  0.17933817     0.26200
C328        C  0.73330595  0.29446019  0.19502651    -0.11500
C329        C  0.70284377  0.29593146  0.19048152    -0.25500
C330        C  0.69167066  0.27745262  0.16864674     0.37000
C331        C  0.76043369  0.24135421  0.13605785     0.06600
F332        F  0.77947975  0.27257008  0.18786634    -0.19300
H333        H  0.74398023  0.30802720  0.21067053     0.16400
F334        F  0.66262988  0.27631789  0.16336972    -0.23000
H335        H  0.70039581  0.25004002  0.13272494     0.18200
C336        C  0.75038952  0.21700023  0.12010926     0.26200
C337        C  0.76875848  0.20236201  0.10049252    -0.11500
C338        C  0.79890033  0.20877305  0.09819409    -0.25500
C339        C  0.80903613  0.23265090  0.11487572     0.37100
C340        C  0.78997096  0.24922559  0.13216412    -0.27200
F341        F  0.72298959  0.20631648  0.12373189    -0.19300
H342        H  0.75873235  0.18555841  0.08770125     0.16400
F343        F  0.83762536  0.24035087  0.11450153    -0.23000
H344        H  0.79881836  0.26853566  0.14226979     0.18200
C345        C  0.10767409  0.74211050  0.99829958    -0.27000
C346        C  0.10998080  0.76871330  0.01333850     0.06600
C347        C  0.08920752  0.79078998  0.00872207     0.26200
C348        C  0.06734849  0.78696051  0.98839112    -0.11500
C349        C  0.06557214  0.76098608  0.97219632    -0.25500
C350        C  0.08542143  0.73809504  0.97797046     0.37000
C351        C  0.13608913  0.77585726  0.03042762     0.06600
F352        F  0.09104612  0.81675752  0.02289145    -0.19300
H353        H  0.05220041  0.80482856  0.98473551     0.16400
F354        F  0.08444093  0.71267191  0.96285785    -0.23000
H355        H  0.12379445  0.72502041  0.00141589     0.18200
C356        C  0.13738965  0.77013911  0.06000741     0.26200
C357        C  0.15938019  0.78288915  0.07667817    -0.11500
C358        C  0.18051925  0.80214783  0.06451968    -0.25500
C359        C  0.17863734  0.80736489  0.03426628     0.37100
C360        C  0.15728398  0.79375723  0.01776922    -0.27200
F361        F  0.11631197  0.75386368  0.07308617    -0.19300
H362        H  0.15898214  0.77900864  0.09969813     0.16400
F363        F  0.19421998  0.82836370  0.02044506    -0.23000
H364        H  0.15572636  0.79932593  0.99512215     0.18200
C365        C  0.23815228  0.89180206  0.98015819    -0.27000
C366        C  0.25796721  0.89362122  0.00298455     0.06600
C367        C  0.27943720  0.91560940  0.00229040     0.26200
C368        C  0.28050090  0.93584838  0.97942890    -0.11500
C369        C  0.25965415  0.93499882  0.95733857    -0.25500
C370        C  0.23874490  0.91236516  0.95769418     0.37000
C371        C  0.25284239  0.87523378  0.02898189     0.06600
F372        F  0.29869245  0.91808312  0.02418905    -0.19300
H373        H  0.29674059  0.95309013  0.97975556     0.16400
F374        F  0.21847854  0.91042142  0.93662566    -0.23000
H375        H  0.22121750  0.87522196  0.98049270     0.18200
C376        C  0.23953029  0.88776880  0.05329234     0.26200
C377        C  0.22563629  0.86993086  0.07372807    -0.11500
C378        C  0.22359389  0.83921795  0.06963832    -0.25500
C379        C  0.24293584  0.82669642  0.04904760     0.37100
C380        C  0.25626650  0.84462506  0.02803372    -0.27200
F381        F  0.23739780  0.91736765  0.05580813    -0.19300
H382        H  0.21462244  0.88068341  0.09147736     0.16400
F383        F  0.24487468  0.79714006  0.04610045    -0.23000
H384        H  0.26738509  0.83452418  0.00991674     0.18200
C385        C  0.13932480  0.87784974  0.09801883    -0.27000
C386        C  0.13237571  0.87511795  0.12723202     0.06600
C387        C  0.14755592  0.85436321  0.14380724     0.26200
C388        C  0.16940391  0.83670451  0.13105430    -0.11500
C389        C  0.17722140  0.83992830  0.10158032    -0.25500
C390        C  0.16092501  0.86062219  0.08532039     0.37000
C391        C  0.10806785  0.89336391  0.13885515     0.06600
F392        F  0.14045806  0.85032072  0.17196470    -0.19300
H393        H  0.17935972  0.82002931  0.14429652     0.16400
F394        F  0.16591875  0.86456010  0.05675783    -0.23000
H395        H  0.12770127  0.89349123  0.08474104     0.18200
C396        C  0.11280666  0.91564263  0.15928511     0.26200
C397        C  0.09103830  0.93684493  0.16481058    -0.11500
C398        C  0.06456904  0.93618928  0.14970734    -0.25500
C399        C  0.05931771  0.91274529  0.13077327     0.37100
C400        C  0.08076525  0.89162359  0.12554323    -0.27200
F401        F  0.13916929  0.91822395  0.17212581    -0.19300
H402        H  0.09557070  0.95474062  0.17940822     0.16400
F403        F  0.03368182  0.91085227  0.11642450    -0.23000
H404        H  0.07661917  0.87463701  0.10980319     0.18200
C405        C  0.25019527  0.79342590  0.14795290    -0.27000
C406        C  0.25238002  0.76309698  0.14312991     0.06600
C407        C  0.23794904  0.75121280  0.11928587     0.26200
C408        C  0.22119048  0.76914067  0.10117761    -0.11500
C409        C  0.21798080  0.79966392  0.10624044    -0.25500
C410        C  0.23398124  0.81154875  0.12948082     0.37000
C411        C  0.26958097  0.74403720  0.16306200     0.06600
F412        F  0.23969728  0.72204309  0.11364675    -0.19300
H413        H  0.21136648  0.75878777  0.08274659     0.16400
F414        F  0.23370690  0.84084900  0.13462738    -0.23000
H415        H  0.26155041  0.80323327  0.16588605     0.18200
C416        C  0.29268743  0.72642677  0.15294160     0.26200
C417        C  0.30861884  0.70864526  0.17195539    -0.11500
C418        C  0.30144539  0.70698735  0.20165695    -0.25500
C419        C  0.27868432  0.72565490  0.21161411     0.37100
C420        C  0.26310699  0.74369257  0.19261890    -0.27200
F421        F  0.30057928  0.72716184  0.12470906    -0.19300
H422        H  0.32700383  0.69677482  0.16309409     0.16400
F423        F  0.27126625  0.72643597  0.23993872    -0.23000
H424        H  0.24564039  0.75731575  0.20104721     0.18200
C425        C  0.07532959  0.10960625  0.67010918    -0.27000
C426        C  0.10161924  0.10686519  0.65456080     0.06600
C427        C  0.10518753  0.08313228  0.63554969     0.26200
C428        C  0.08303767  0.06217578  0.63274564    -0.11500
C429        C  0.05739171  0.06412433  0.64945379    -0.25500
C430        C  0.05349243  0.08831845  0.66782557     0.37000
C431        C  0.12631203  0.12653997  0.66150689     0.06600
F432        F  0.13037820  0.07985636  0.62029708    -0.19300
H433        H  0.08648223  0.04368611  0.61848352     0.16400
F434        F  0.02869962  0.09120641  0.68379370    -0.23000
H435        H  0.07230252  0.12755164  0.68511357     0.18200
C436        C  0.12378434  0.15717038  0.65941039     0.26200
C437        C  0.14476070  0.17532014  0.67206767    -0.11500
C438        C  0.16685279  0.16328328  0.68963246    -0.25500
C439        C  0.17188724  0.13259931  0.68717922     0.37100
C440        C  0.15150817  0.11458950  0.67369085    -0.27200
F441        F  0.10022544  0.16947809  0.64659023    -0.19300
H442        H  0.14160065  0.19885916  0.67118928     0.16400
F443        F  0.19585146  0.11949155  0.69838491    -0.23000
H444        H  0.15454490  0.09101947  0.67438869     0.18200
C445        C  0.25965670  0.09438947  0.79939467    -0.27000
C446        C  0.23679831  0.11442708  0.80433066     0.06600
C447        C  0.22200665  0.11368803  0.83101403     0.26200
C448        C  0.22802278  0.09167945  0.85108264    -0.11500
C449        C  0.24937517  0.07032962  0.84536893    -0.25500
C450        C  0.26610873  0.07258694  0.81986837     0.37000
C451        C  0.22489751  0.13248539  0.78039697     0.06600
F452        F  0.20064566  0.13347637  0.83705812    -0.19300
H453        H  0.21532922  0.09080727  0.87085946     0.16400
F454        F  0.28705521  0.05241646  0.81372139    -0.23000
H455        H  0.27124198  0.09444155  0.77896509     0.18200
C456        C  0.24193244  0.15220776  0.76409849     0.26200
C457        C  0.22926862  0.16870298  0.74171898    -0.11500
C458        C  0.19947678  0.16522881  0.73450081    -0.25500
C459        C  0.18275501  0.14553111  0.75170484     0.37100
C460        C  0.19536956  0.12942294  0.77378423    -0.27200
F461        F  0.27051276  0.15623492  0.77039815    -0.19300
H462        H  0.24281631  0.18461075  0.73070672     0.16400
F463        F  0.15394720  0.14112248  0.74682344    -0.23000
H464        H  0.18182496  0.11414182  0.78579005     0.18200
C465        C  0.08382986  0.26228272  0.78785726    -0.27000
C466        C  0.10834583  0.24494634  0.79417590     0.06600
C467        C  0.11249520  0.23519087  0.82256700     0.26200
C468        C  0.09128563  0.24080280  0.84372455    -0.11500
C469        C  0.06608878  0.25696162  0.83711781    -0.25500
C470        C  0.06301646  0.26865064  0.80926659     0.37000
C471        C  0.12667713  0.23290039  0.77057245     0.06600
F472        F  0.13597099  0.21839418  0.82929412    -0.19300
H473        H  0.09407654  0.23174167  0.86511583     0.16400
F474        F  0.03880103  0.28416278  0.80217959    -0.23000
H475        H  0.08019007  0.26975089  0.76601686     0.18200
C476        C  0.11470983  0.21212359  0.75197117     0.26200
C477        C  0.13232077  0.19738928  0.73206320    -0.11500
C478        C  0.16263286  0.20323368  0.72942424    -0.25500
C479        C  0.17430411  0.22469074  0.74828433     0.37100
C480        C  0.15652167  0.23923157  0.76847743    -0.27200
F481        F  0.08621476  0.20431187  0.75462886    -0.19300
H482        H  0.12198723  0.17977417  0.72056548     0.16400
F483        F  0.20330698  0.23072937  0.74806079    -0.23000
H484        H  0.16623217  0.25483876  0.78310730     0.18200
C485        C  0.25109496  0.25691651  0.60360408    -0.27000
C486        C  0.25878889  0.25297447  0.63246779     0.06600
C487        C  0.28444931  0.26603024  0.64247034     0.26200
C488        C  0.30149259  0.28373153  0.62418648    -0.11500
C489        C  0.29357049  0.28884772  0.59515908    -0.25500
C490        C  0.26855502  0.27384071  0.58499145     0.37000
C491        C  0.23987618  0.23544799  0.65214618     0.06600
F492        F  0.29324427  0.26134492  0.66993763    -0.19300
H493        H  0.32153459  0.29241762  0.63279177     0.16400
F494        F  0.26094615  0.27536673  0.55685660    -0.23000
H495        H  0.23168879  0.24644152  0.59533269     0.18200
C496        C  0.21547222  0.24827965  0.66544016     0.26200
C497        C  0.19786918  0.23197026  0.68441101    -0.11500
C498        C  0.20423853  0.20228517  0.69110602    -0.25500
C499        C  0.22800766  0.18921380  0.67605646     0.37100
C500        C  0.24585216  0.20578102  0.65742608    -0.27200
F501        F  0.20849929  0.27667078  0.65985032    -0.19300
H502        H  0.17877673  0.24275391  0.69320851     0.16400
F503        F  0.23416535  0.16029674  0.67931578    -0.23000
H504        H  0.26422504  0.19530789  0.64678287     0.18200
C505        C  0.91001556  0.74851328  0.00505770    -0.27000
C506        C  0.90049084  0.77698235  0.01175410     0.06600
C507        C  0.91164550  0.80083122  0.99596166     0.26200
C508        C  0.93244414  0.79640326  0.97434181    -0.11500
C509        C  0.94278756  0.76809773  0.96793509    -0.25500
C510        C  0.93111676  0.74401510  0.98336023     0.37000
C511        C  0.88102433  0.78279362  0.03669735     0.06600
F512        F  0.90270002  0.82861817  0.00185433    -0.19300
H513        H  0.94078162  0.81538219  0.96287487     0.16400
F514        F  0.94055567  0.71629203  0.97807445    -0.23000
H515        H  0.90181393  0.72993646  0.01723924     0.18200
C516        C  0.85133794  0.77554914  0.03649529     0.26200
C517        C  0.83241308  0.78696445  0.05763506    -0.11500
C518        C  0.84244815  0.80588567  0.07972424    -0.25500
C519        C  0.87298898  0.81227821  0.07952006     0.37100
C520        C  0.89163733  0.80016168  0.05892001    -0.27200
F521        F  0.84027150  0.75931933  0.01469399    -0.19300
H522        H  0.80932026  0.78234412  0.05583214     0.16400
F523        F  0.88513588  0.83345048  0.09585424    -0.23000
H524        H  0.91442026  0.80658558  0.05883810     0.18200
C525        C  0.78346708  0.89046299  0.97828471    -0.27000
C526        C  0.76776076  0.89244893  0.00428079     0.06600
C527        C  0.74467421  0.91281323  0.00638233     0.26200
C528        C  0.73882431  0.93204340  0.98334024    -0.11500
C529        C  0.75614785  0.93134318  0.95818620    -0.25500
C530        C  0.77785252  0.90963471  0.95555439     0.37000
C531        C  0.77871594  0.87595560  0.02968620     0.06600
F532        F  0.72929327  0.91558575  0.03133254    -0.19300
H533        H  0.72205485  0.94863560  0.98586304     0.16400
F534        F  0.79440267  0.90756387  0.93124113    -0.23000
H535        H  0.80112643  0.87476601  0.97606670     0.18200
C536        C  0.76159002  0.85568651  0.04516676     0.26200
C537        C  0.77393464  0.83887739  0.06748824    -0.11500
C538        C  0.80356096  0.84240183  0.07539176    -0.25500
C539        C  0.82025954  0.86312200  0.05935468     0.37100
C540        C  0.80794542  0.87952155  0.03726829    -0.27200
F541        F  0.73334754  0.85114337  0.03785288    -0.19300
H542        H  0.76028342  0.82255276  0.07773902     0.16400
F543        F  0.84882289  0.86788880  0.06509180    -0.23000
H544        H  0.82158570  0.89504375  0.02567136     0.18200
C545        C  0.84975392  0.88953443  0.14020093    -0.27000
C546        C  0.87329835  0.87621937  0.15414226     0.06600
C547        C  0.87350931  0.84547225  0.15685605     0.26200
C548        C  0.85295655  0.82849864  0.14199180    -0.11500
C549        C  0.83364780  0.84190563  0.12227111    -0.25500
C550        C  0.82964869  0.87269823  0.12500791     0.37000
C551        C  0.89911966  0.89445355  0.16133677     0.06600
F552        F  0.89501823  0.83183287  0.17171371    -0.19300
H553        H  0.85500051  0.80482310  0.14257106     0.16400
F554        F  0.80706993  0.88703127  0.11252573    -0.23000
H555        H  0.84806816  0.91323015  0.13925920     0.18200
C556        C  0.92606752  0.88887927  0.14758633     0.26200
C557        C  0.94835177  0.90978893  0.14822477    -0.11500
C558        C  0.94451801  0.93634088  0.16301052    -0.25500
C559        C  0.91848187  0.94112208  0.17851490     0.37100
C560        C  0.89582320  0.92045450  0.17735231    -0.27200
F561        F  0.92998470  0.86443400  0.13134566    -0.19300
H562        H  0.96827952  0.90576893  0.13611265     0.16400
F563        F  0.91401943  0.96677753  0.19268437    -0.23000
H564        H  0.87516491  0.92536650  0.18779092     0.18200
C565        C  0.75011218  0.72216269  0.18201862    -0.27000
C566        C  0.73926484  0.74625926  0.16643563     0.06600
C567        C  0.70909088  0.75204046  0.16821238     0.26200
C568        C  0.69073669  0.73472532  0.18558338    -0.11500
C569        C  0.70147438  0.71089242  0.20193218    -0.25500
C570        C  0.73164217  0.70421685  0.19871457     0.37000
C571        C  0.75934794  0.76512867  0.14846565     0.06600
F572        F  0.69696178  0.77383985  0.15233949    -0.19300
H573        H  0.66763960  0.73978667  0.18606258     0.16400
F574        F  0.74352985  0.67953798  0.20998516    -0.23000
H575        H  0.77313585  0.71686088  0.18113085     0.18200
C576        C  0.78200721  0.75298316  0.13154376     0.26200
C577        C  0.80121714  0.77108020  0.11582831    -0.11500
C578        C  0.79773569  0.80197005  0.11503957    -0.25500
C579        C  0.77491163  0.81386317  0.13223732     0.37100
C580        C  0.75637076  0.79581713  0.14865824    -0.27200
F581        F  0.78550073  0.72346023  0.12972496    -0.19300
H582        H  0.81902888  0.76037272  0.10470654     0.16400
F583        F  0.77052704  0.84326913  0.13343033    -0.23000
H584        H  0.73980630  0.80610431  0.16199611     0.18200
C585        C  0.16048829  0.75533059  0.77730319    -0.27000
C586        C  0.13027093  0.76039630  0.77693016     0.06600
C587        C  0.11840124  0.77624153  0.75398563     0.26200
C588        C  0.13673328  0.79049759  0.73434104    -0.11500
C589        C  0.16742773  0.79029157  0.73783024    -0.25500
C590        C  0.17889518  0.76903802  0.75700326     0.37000
C591        C  0.11193717  0.75470999  0.80272964     0.06600
F592        F  0.08911124  0.78029138  0.75214622    -0.19300
H593        H  0.12644618  0.80298385  0.71741953     0.16400
F594        F  0.20814722  0.76495933  0.75906827    -0.23000
H595        H  0.16998446  0.74240368  0.79443980     0.18200
C596        C  0.08863863  0.73467930  0.80229245     0.26200
C597        C  0.06845232  0.73380214  0.82521289    -0.11500
C598        C  0.07074124  0.75356241  0.84831407    -0.25500
C599        C  0.09460107  0.77292189  0.84904052     0.37100
C600        C  0.11511075  0.77321426  0.82659537    -0.27200
F601        F  0.08482566  0.71686181  0.77925200    -0.19300
H602        H  0.05017277  0.71880086  0.82417189     0.16400
F603        F  0.09777537  0.79200518  0.87120324    -0.23000
H604        H  0.13270133  0.78907835  0.82707670     0.18200
C605        C  0.21933406  0.85276882  0.78867089    -0.27000
C606        C  0.23760375  0.87339644  0.77559021     0.06600
C607        C  0.24227920  0.87191444  0.74578276     0.26200
C608        C  0.22777292  0.85071700  0.72928208    -0.11500
C609        C  0.20799464  0.83034453  0.74189319    -0.25500
C610        C  0.20423559  0.83205570  0.77243827     0.37000
C611        C  0.24605162  0.89951457  0.79255235     0.06600
F612        F  0.25947077  0.89207315  0.73241004    -0.19300
H613        H  0.23080080  0.85113350  0.70612820     0.16400
F614        F  0.18327141  0.81714126  0.78698382    -0.23000
H615        H  0.21462887  0.85442218  0.81153357     0.18200
C616        C  0.22617800  0.92284248  0.79489330     0.26200
C617        C  0.23044078  0.94499605  0.81514215    -0.11500
C618        C  0.25471764  0.94455595  0.83345924    -0.25500
C619        C  0.27564758  0.92210989  0.82995497     0.37100
C620        C  0.27109511  0.89953460  0.80982649    -0.27200
F621        F  0.20159738  0.92316306  0.77876249    -0.19300
H622        H  0.21407592  0.96206419  0.81718554     0.16400
F623        F  0.29935521  0.92086081  0.84723833    -0.23000
H624        H  0.28642276  0.88146347  0.80856681     0.18200
C625        C  0.13267599  0.87562998  0.71053124    -0.27000
C626        C  0.13263564  0.87993526  0.68070890     0.06600
C627        C  0.15209335  0.86353079  0.66360010     0.26200
C628        C  0.17052530  0.84248951  0.67622463    -0.11500
C629        C  0.16927908  0.83651864  0.70619134    -0.25500
C630        C  0.15070712  0.85470439  0.72314503     0.37000
C631        C  0.11235637  0.90214176  0.66847713     0.06600
F632        F  0.15381274  0.86835415  0.63479193    -0.19300
H633        H  0.18580613  0.83125618  0.66226254     0.16400
F634        F  0.14883367  0.85141172  0.75213103    -0.23000
H635        H  0.11813996  0.88827380  0.72424242     0.18200
C636        C  0.09087912  0.89452563  0.64825660     0.26200
C637        C  0.06880547  0.91469217  0.64098814    -0.11500
C638        C  0.06772903  0.94245002  0.65410326    -0.25500
C639        C  0.09009654  0.95042847  0.67309749     0.37100
C640        C  0.11212545  0.93054221  0.68007509    -0.27200
F641        F  0.08998993  0.86699207  0.63721465    -0.19300
H642        H  0.05163452  0.90801337  0.62652236     0.16400
F643        F  0.09018547  0.97733754  0.68560002    -0.23000
H644        H  0.12849740  0.93695150  0.69553869     0.18200
C645        C  0.24872968  0.76778803  0.68008156    -0.27000
C646        C  0.23231704  0.75340846  0.65906872     0.06600
C647        C  0.20208161  0.75791421  0.65856449     0.26200
C648        C  0.18868469  0.77686423  0.67842249    -0.11500
C649        C  0.20489936  0.79234531  0.69936799    -0.25500
C650        C  0.23538190  0.78641592  0.70038821     0.37000
C651        C  0.24671751  0.73250222  0.63884779     0.06600
F652        F  0.18544261  0.74395026  0.63881944    -0.19300
H653        H  0.16523425  0.77960206  0.67740842     0.16400
F654        F  0.25241754  0.79661270  0.72185904    -0.23000
H655        H  0.27198078  0.76370945  0.68141801     0.18200
C656        C  0.26390282  0.74259095  0.61575565     0.26200
C657        C  0.27834047  0.72267205  0.59752828    -0.11500
C658        C  0.27706700  0.69196471  0.60242810    -0.25500
C659        C  0.25820576  0.68218997  0.62485567     0.37100
C660        C  0.24351865  0.70218657  0.64281104    -0.27200
F661        F  0.26635103  0.77180382  0.61051288    -0.19300
H662        H  0.29005935  0.73173669  0.57932352     0.16400
F663        F  0.25441527  0.65309332  0.62986959    -0.23000
H664        H  0.22990018  0.69395580  0.66020590     0.18200
C665        C  0.74572744  0.10290180  0.81194359    -0.27000
C666        C  0.76668092  0.09751254  0.79022019     0.06600
C667        C  0.78051338  0.06996214  0.78938175     0.26200
C668        C  0.77513829  0.04916942  0.81084810    -0.11500
C669        C  0.75554035  0.05499239  0.83351687    -0.25500
C670        C  0.74004173  0.08171567  0.83344606     0.37000
C671        C  0.77766567  0.12144742  0.77112340     0.06600
F672        F  0.80031277  0.06362987  0.76836351    -0.19300
H673        H  0.78702430  0.02860655  0.81018439     0.16400
F674        F  0.72114572  0.08820740  0.85517966    -0.23000
H675        H  0.73502859  0.12407372  0.81318388     0.18200
C676        C  0.75967113  0.13734054  0.75224757     0.26200
C677        C  0.77172984  0.15874449  0.73365473    -0.11500
C678        C  0.80193176  0.16535851  0.73413938    -0.25500
C679        C  0.81954028  0.14878007  0.75327042     0.37100
C680        C  0.80752650  0.12763057  0.77138681    -0.27200
F681        F  0.73066504  0.13154328  0.75113026    -0.19300
H682        H  0.75732828  0.16956881  0.71871032     0.16400
F683        F  0.84869312  0.15358512  0.75512969    -0.23000
H684        H  0.82182846  0.11589599  0.78589491     0.18200
C685        C  0.92113191  0.23009889  0.78922086    -0.27000
C686        C  0.89703827  0.24911538  0.78892167     0.06600
C687        C  0.89529309  0.27172673  0.80939701     0.26200
C688        C  0.91753089  0.27526319  0.82971726    -0.11500
C689        C  0.94123292  0.25562243  0.83058474    -0.25500
C690        C  0.94285293  0.23302400  0.81000140     0.37000
C691        C  0.87237596  0.24228236  0.76965717     0.06600
F692        F  0.87179716  0.28987962  0.81013085    -0.19300
H693        H  0.91561331  0.29260023  0.84554348     0.16400
F694        F  0.96530748  0.21355981  0.81009266    -0.23000
H695        H  0.92248922  0.21215586  0.77398583     0.18200
C696        C  0.87515764  0.24419057  0.73957046     0.26200
C697        C  0.85473195  0.23030784  0.72178459    -0.11500
C698        C  0.83315170  0.21171179  0.73379093    -0.25500
C699        C  0.82745052  0.21499819  0.76384972     0.37100
C700        C  0.84726315  0.22957431  0.78143321    -0.27200
F701        F  0.89856303  0.25783820  0.72750400    -0.19300
H702        H  0.85807172  0.23098756  0.69867481     0.16400
F703        F  0.80332250  0.20363457  0.77681649    -0.23000
H704        H  0.84392295  0.22925908  0.80456335     0.18200
C705        C  0.91539267  0.10574009  0.63680829    -0.27000
C706        C  0.89319090  0.10220810  0.65762986     0.06600
C707        C  0.89033191  0.07510558  0.67176978     0.26200
C708        C  0.91041944  0.05262311  0.66656636    -0.11500
C709        C  0.93345322  0.05641264  0.64674361    -0.25500
C710        C  0.93517715  0.08281523  0.63102164     0.37000
C711        C  0.87495164  0.12730783  0.66727856     0.06600
F712        F  0.86924516  0.07109367  0.69211409    -0.19300
H713        H  0.90861454  0.03249214  0.67890566     0.16400
F714        F  0.95714929  0.08724158  0.61171886    -0.23000
H715        H  0.91793764  0.12654638  0.62575883     0.18200
C716        C  0.88718116  0.14936216  0.68429714     0.26200
C717        C  0.86930903  0.16956954  0.69874548    -0.11500
C718        C  0.83849126  0.16926671  0.69585190    -0.25500
C719        C  0.82669564  0.14731276  0.67759166     0.37100
C720        C  0.84466118  0.12671658  0.66375787    -0.27200
F721        F  0.91639372  0.14983893  0.68896881    -0.19300
H722        H  0.88015793  0.18363917  0.71382141     0.16400
F723        F  0.79740367  0.14489239  0.67415744    -0.23000
H724        H  0.83477589  0.10948629  0.65111893     0.18200
C725        C  0.75474549  0.24077263  0.68927493    -0.27000
C726        C  0.75880302  0.24157498  0.65930922     0.06600
C727        C  0.78243325  0.22615303  0.64731436     0.26200
C728        C  0.80099689  0.20960840  0.66479932    -0.11500
C729        C  0.79620037  0.20692535  0.69492202    -0.25500
C730        C  0.77315215  0.22394542  0.70686766     0.37000
C731        C  0.73903651  0.25920308  0.64067434     0.06600
F732        F  0.78826309  0.22790813  0.61864156    -0.19300
H733        H  0.81953409  0.19948656  0.65428575     0.16400
F734        F  0.76817000  0.22433867  0.73566960    -0.23000
H735        H  0.73705482  0.25307756  0.69910901     0.18200
C736        C  0.72494086  0.24643626  0.61705281     0.26200
C737        C  0.70751022  0.26344614  0.59881298    -0.11500
C738        C  0.70321064  0.29379049  0.60368268    -0.25500
C739        C  0.71797399  0.30642635  0.62736597     0.37100
C740        C  0.73510087  0.28925348  0.64575835    -0.27200
F741        F  0.72814080  0.21738056  0.61146312    -0.19300
H742        H  0.69833438  0.25265561  0.58029723     0.16400
F743        F  0.71598415  0.33562518  0.63272521    -0.23000
H744        H  0.74607304  0.29967467  0.66359300     0.18200
C745        C  0.85466709  0.76714124  0.77821269    -0.27000
C746        C  0.88432442  0.77439530  0.77604287     0.06600
C747        C  0.89410711  0.78965881  0.75162416     0.26200
C748        C  0.87438745  0.79997734  0.73124182    -0.11500
C749        C  0.84395174  0.79456300  0.73365461    -0.25500
C750        C  0.83473249  0.77697085  0.75740808     0.37000
C751        C  0.90443505  0.77013703  0.80071225     0.06600
F752        F  0.92282807  0.79640433  0.74842521    -0.19300
H753        H  0.88361283  0.81423610  0.71513115     0.16400
F754        F  0.80598800  0.77111346  0.76174436    -0.23000
H755        H  0.84661540  0.75541562  0.79696575     0.18200
C756        C  0.91811329  0.79472548  0.81279775     0.26200
C757        C  0.93849442  0.79138419  0.83467072    -0.11500
C758        C  0.94581596  0.76346757  0.84539072    -0.25500
C759        C  0.93140037  0.73875590  0.83400627     0.37100
C760        C  0.91080771  0.74215706  0.81185924    -0.27200
F761        F  0.91165957  0.82220895  0.80342939    -0.19300
H762        H  0.94868098  0.81094271  0.84315148     0.16400
F763        F  0.93740463  0.71139267  0.84391336    -0.23000
H764        H  0.90033295  0.72294469  0.80297853     0.18200
C765        C  0.74912086  0.91410960  0.78902503    -0.27000
C766        C  0.75932211  0.88656770  0.79818026     0.06600
C767        C  0.76134324  0.88066369  0.82775605     0.26200
C768        C  0.75508215  0.90262902  0.84782635    -0.11500
C769        C  0.74660476  0.93070230  0.83870236    -0.25500
C770        C  0.74276300  0.93614885  0.80919032     0.37000
C771        C  0.77370177  0.86668262  0.77739811     0.06600
F772        F  0.77168042  0.85441592  0.83707596    -0.19300
H773        H  0.75870244  0.89831843  0.87047753     0.16400
F774        F  0.73547703  0.96340179  0.79980953    -0.23000
H775        H  0.74809305  0.91915991  0.76624641     0.18200
C776        C  0.75827862  0.84551045  0.76187237     0.26200
C777        C  0.77299012  0.82725314  0.74218663    -0.11500
C778        C  0.80343423  0.83013688  0.73720833    -0.25500
C779        C  0.81866776  0.85070317  0.75444159     0.37100
C780        C  0.80390107  0.86876313  0.77382964    -0.27200
F781        F  0.72909286  0.84231742  0.76595366    -0.19300
H782        H  0.76027344  0.81086328  0.73119600     0.16400
F783        F  0.84797382  0.85426251  0.75172571    -0.23000
H784        H  0.81614891  0.88469718  0.78609679     0.18200
C785        C  0.87436532  0.83906457  0.65597314    -0.27000
C786        C  0.87233865  0.86955195  0.65955288     0.06600
C787        C  0.84887609  0.88110851  0.67530790     0.26200
C788        C  0.83056134  0.86245719  0.69093977    -0.11500
C789        C  0.83578227  0.83178698  0.69193975    -0.25500
C790        C  0.85531551  0.82028510  0.67098359     0.37000
C791        C  0.89734859  0.88877085  0.65254874     0.06600
F792        F  0.84535623  0.91058351  0.67785672    -0.19300
H793        H  0.81320396  0.87262299  0.70324878     0.16400
F794        F  0.85884177  0.79085921  0.66808300    -0.23000
H795        H  0.89190929  0.82978228  0.64312902     0.18200
C796        C  0.92205241  0.88765876  0.67021651     0.26200
C797        C  0.94367406  0.90910710  0.66787017    -0.11500
C798        C  0.94134282  0.93176215  0.64752537    -0.25500
C799        C  0.91722001  0.93218391  0.62889355     0.37100
C800        C  0.89515533  0.91100803  0.63172109    -0.27200
F801        F  0.92429389  0.86684704  0.69105349    -0.19300
H802        H  0.96202911  0.90836204  0.68240838     0.16400
F803        F  0.91403594  0.95408508  0.60930844    -0.23000
H804        H  0.87593954  0.91248635  0.61835983     0.18200
C805        C  0.74882859  0.70670079  0.63818595    -0.27000
C806        C  0.74125160  0.73501871  0.64779187     0.06600
C807        C  0.71264061  0.74493866  0.64200996     0.26200
C808        C  0.69333390  0.72792326  0.62580667    -0.11500
C809        C  0.70099398  0.69967042  0.61578524    -0.25500
C810        C  0.72857330  0.68870683  0.62424146     0.37000
C811        C  0.76261395  0.75372554  0.66425419     0.06600
F812        F  0.70244811  0.77049325  0.65320028    -0.19300
H813        H  0.67165569  0.73660184  0.62237037     0.16400
F814        F  0.73622426  0.66041150  0.61918714    -0.23000
H815        H  0.77045169  0.69796577  0.64160877     0.18200
C816        C  0.78373206  0.74155358  0.68287158     0.26200
C817        C  0.80292915  0.75960424  0.69822047    -0.11500
C818        C  0.80066729  0.79051439  0.69728779    -0.25500
C819        C  0.77974915  0.80249317  0.67824890     0.37100
C820        C  0.76187679  0.78447436  0.66160982    -0.27200
F821        F  0.78555997  0.71218105  0.68724401    -0.19300
H822        H  0.81926585  0.74883510  0.71108849     0.16400
F823        F  0.77627757  0.83196405  0.67576404    -0.23000
H824        H  0.74732770  0.79498044  0.64654130     0.18200
C825        C  0.62152935  0.35174017  0.15783748    -0.27000
C826        C  0.63711657  0.37380912  0.14363181     0.06600
C827        C  0.66774620  0.37325426  0.14445820     0.26200
C828        C  0.68211358  0.35299435  0.16226774    -0.11500
C829        C  0.66606127  0.33501478  0.18158572    -0.25500
C830        C  0.63559664  0.33224285  0.17620950     0.37000
C831        C  0.62074550  0.40020707  0.13461133     0.06600
F832        F  0.68355612  0.39366356  0.12985034    -0.19300
H833        H  0.70568048  0.35390650  0.16366499     0.16400
F834        F  0.61889092  0.31087190  0.18826839    -0.23000
H835        H  0.59793625  0.35096703  0.15647761     0.18200
C836        C  0.59747117  0.39830702  0.11509007     0.26200
C837        C  0.57597146  0.42029107  0.11448055    -0.11500
C838        C  0.57718365  0.44386838  0.13386205    -0.25500
C839        C  0.60176220  0.44691066  0.15151867     0.37100
C840        C  0.62345154  0.42541233  0.15162310    -0.27200
F841        F  0.59445282  0.37420057  0.09826691    -0.19300
H842        H  0.55728563  0.41769032  0.10058621     0.16400
F843        F  0.60395346  0.46988609  0.16994456    -0.23000
H844        H  0.64097442  0.42712180  0.16705979     0.18200
C845        C  0.59244281  0.60808937  0.13114718    -0.27000
C846        C  0.60791411  0.61145840  0.15688004     0.06600
C847        C  0.60409941  0.59086435  0.17906797     0.26200
C848        C  0.58454008  0.56772073  0.17593322    -0.11500
C849        C  0.56836653  0.56441739  0.15053983    -0.25500
C850        C  0.57297231  0.58452272  0.12780185     0.37000
C851        C  0.62646792  0.63731696  0.16228460     0.06600
F852        F  0.61864838  0.59375878  0.20426543    -0.19300
H853        H  0.58179279  0.55252439  0.19371750     0.16400
F854        F  0.55808976  0.58199663  0.10279467    -0.23000
H855        H  0.59512321  0.62391957  0.11390623     0.18200
C856        C  0.65696670  0.63480827  0.16169396     0.26200
C857        C  0.67407795  0.65513489  0.17654534    -0.11500
C858        C  0.66079919  0.67686809  0.19401700    -0.25500
C859        C  0.63082339  0.68278405  0.18907059     0.37100
C860        C  0.61376562  0.66254284  0.17412038    -0.27200
F861        F  0.66992737  0.61114415  0.14930988    -0.19300
H862        H  0.69737109  0.65133505  0.17775643     0.16400
F863        F  0.61751936  0.70722907  0.19945898    -0.23000
H864        H  0.59031107  0.66551433  0.17354636     0.18200
C865        C  0.35337428  0.62454653  0.17817966    -0.27000
C866        C  0.38217969  0.62359981  0.18809299     0.06600
C867        C  0.39133230  0.64484763  0.20771917     0.26200
C868        C  0.37197480  0.66620571  0.21786895    -0.11500
C869        C  0.34251528  0.66757061  0.20857637    -0.25500
C870        C  0.33367373  0.64581822  0.18855973     0.37000
C871        C  0.40231994  0.59944440  0.17970510     0.06600
F872        F  0.41899432  0.64436267  0.21800696    -0.19300
H873        H  0.38013894  0.67990248  0.23467384     0.16400
F874        F  0.30549779  0.64429118  0.17990074    -0.23000
H875        H  0.34579233  0.60804932  0.16336666     0.18200
C876        C  0.41324333  0.58026292  0.20077244     0.26200
C877        C  0.43412795  0.55907534  0.19352126    -0.11500
C878        C  0.44471205  0.55646893  0.16510698    -0.25500
C879        C  0.43327422  0.57533316  0.14384233     0.37100
C880        C  0.41215483  0.59649830  0.15114365    -0.27200
F881        F  0.40381119  0.58218306  0.22850411    -0.19300
H882        H  0.44227111  0.54485495  0.21036995     0.16400
F883        F  0.44310515  0.57404100  0.11622443    -0.23000
H884        H  0.40412854  0.61123220  0.13466354     0.18200
C885        C  0.38034486  0.34072539  0.15380901    -0.27000
C886        C  0.38071486  0.37079284  0.16023351     0.06600
C887        C  0.35762223  0.38279550  0.17617495     0.26200
C888        C  0.33664335  0.36459020  0.18866808    -0.11500
C889        C  0.33901037  0.33362711  0.18695000    -0.25500
C890        C  0.35895808  0.32236333  0.16619049     0.37000
C891        C  0.40684672  0.38907069  0.15476931     0.06600
F892        F  0.35655939  0.41208235  0.18141578    -0.19300
H893        H  0.31945283  0.37515254  0.20088810     0.16400
F894        F  0.36015116  0.29313040  0.16076209    -0.23000
H895        H  0.39760963  0.33120409  0.14077007     0.18200
C896        C  0.42570349  0.39482927  0.17771713     0.26200
C897        C  0.44766613  0.41585084  0.17488400    -0.11500
C898        C  0.45133603  0.43180195  0.14912866    -0.25500
C899        C  0.43313653  0.42511037  0.12564328     0.37100
C900        C  0.41098841  0.40393016  0.12856393    -0.27200
F901        F  0.42196629  0.38097067  0.20340789    -0.19300
H902        H  0.46130924  0.42021940  0.19331717     0.16400
F903        F  0.43588464  0.43977220  0.10030976    -0.23000
H904        H  0.39636239  0.39996362  0.11079415     0.18200
C905        C  0.41508244  0.26604503  0.50330756    -0.27000
C906        C  0.39364833  0.24411537  0.50323914     0.06600
C907        C  0.39546244  0.22137839  0.48298533     0.26200
C908        C  0.41808542  0.22120456  0.46245360    -0.11500
C909        C  0.43854760  0.24418513  0.46146083    -0.25500
C910        C  0.43721736  0.26629279  0.48251942     0.37000
C911        C  0.36740991  0.24858821  0.52125957     0.06600
F912        F  0.37482120  0.20007027  0.48246200    -0.19300
H913        H  0.41875042  0.20394939  0.44645760     0.16400
F914        F  0.45694232  0.28851017  0.48266736    -0.23000
H915        H  0.41375116  0.28392192  0.51861275     0.18200
C916        C  0.36886725  0.24678962  0.55135060     0.26200
C917        C  0.34838332  0.26185684  0.56832314    -0.11500
C918        C  0.32808218  0.28110496  0.55532194    -0.25500
C919        C  0.32298822  0.27725100  0.52547130     0.37100
C920        C  0.34299612  0.26161035  0.50862672    -0.27200
F921        F  0.39191494  0.23351960  0.56415526    -0.19300
H922        H  0.35142794  0.26222086  0.59141621     0.16400
F923        F  0.29982482  0.28957696  0.51203264    -0.23000
H924        H  0.34084701  0.26195673  0.48540749     0.18200
C925        C  0.59100922  0.29218033  0.48412919    -0.27000
C926        C  0.60422244  0.26829183  0.49792450     0.06600
C927        C  0.59437913  0.23977063  0.49176324     0.26200
C928        C  0.57257336  0.23540427  0.47104499    -0.11500
C929        C  0.56010775  0.25943363  0.45645767    -0.25500
C930        C  0.56935776  0.28797900  0.46371029     0.37000
C931        C  0.62857907  0.27417491  0.51802183     0.06600
F932        F  0.60639073  0.21619926  0.50508828    -0.19300
H933        H  0.56563503  0.21325242  0.46625328     0.16400
F934        F  0.55774223  0.31211442  0.45098531    -0.23000
H935        H  0.59770425  0.31439135  0.48908169     0.18200
C936        C  0.65161020  0.29234772  0.50911416     0.26200
C937        C  0.67126731  0.30347966  0.52902070    -0.11500
C938        C  0.66950530  0.29609629  0.55865416    -0.25500
C939        C  0.64706378  0.27624726  0.56703471     0.37100
C940        C  0.62704435  0.26542446  0.54694036    -0.27200
F941        F  0.65401735  0.30098149  0.48117727    -0.19300
H942        H  0.68610134  0.31988655  0.52088078     0.16400
F943        F  0.64310248  0.26899559  0.59515248    -0.23000
H944        H  0.60920065  0.25171667  0.55436409     0.18200
C945        C  0.61978028  0.30941579  0.26177898    -0.27000
C946        C  0.61840576  0.27914007  0.26649430     0.06600
C947        C  0.63821293  0.26082767  0.25168078     0.26200
C948        C  0.65881559  0.27286778  0.23232938    -0.11500
C949        C  0.65978075  0.30344531  0.22695778    -0.25500
C950        C  0.63987630  0.32142133  0.24256644     0.37000
C951        C  0.59591894  0.26787165  0.28701637     0.06600
F952        F  0.63726112  0.23129991  0.25538596    -0.19300
H953        H  0.67386815  0.25805676  0.22175052     0.16400
F954        F  0.63915563  0.35091704  0.23861141    -0.23000
H955        H  0.60508052  0.32408370  0.27316820     0.18200
C956        C  0.60331510  0.24995750  0.31062763     0.26200
C957        C  0.58262817  0.24417163  0.33239994    -0.11500
C958        C  0.55464598  0.25673898  0.33123076    -0.25500
C959        C  0.54686736  0.27337599  0.30702201     0.37100
C960        C  0.56719768  0.27858572  0.28506725    -0.27200
F961        F  0.63099293  0.23989234  0.31376998    -0.19300
H962        H  0.58897237  0.23128871  0.35095758     0.16400
F963        F  0.51966179  0.28497946  0.30481446    -0.23000
H964        H  0.56084240  0.29212681  0.26696260     0.18200
C965        C  0.41797550  0.23511824  0.28899188    -0.27000
C966        C  0.39400935  0.25412613  0.29240246     0.06600
C967        C  0.38913785  0.26758533  0.31918864     0.26200
C968        C  0.40879662  0.26337259  0.34162871    -0.11500
C969        C  0.43343905  0.24535800  0.33797506    -0.25500
C970        C  0.43745369  0.23046784  0.31173775     0.37000
C971        C  0.37651661  0.26345675  0.26732792     0.06600
F972        F  0.36661364  0.28663504  0.32292153    -0.19300
H973        H  0.40541386  0.27520448  0.36160221     0.16400
F974        F  0.46139370  0.21344707  0.30730431    -0.23000
H975        H  0.42222265  0.22487474  0.26834713     0.18200
C976        C  0.38941448  0.28095249  0.24596677     0.26200
C977        C  0.37220219  0.29536229  0.22568547    -0.11500
C978        C  0.34139537  0.29213371  0.22534574    -0.25500
C979        C  0.32893275  0.27305467  0.24635611     0.37100
C980        C  0.34627618  0.25915253  0.26702034    -0.27200
F981        F  0.41853303  0.28646361  0.24640327    -0.19300
H982        H  0.38351366  0.31086569  0.21214155     0.16400
F983        F  0.29955967  0.26956165  0.24827987    -0.23000
H984        H  0.33590285  0.24607895  0.28370162     0.18200
C985        C  0.25175844  0.60582364  0.47539558    -0.27000
C986        C  0.23286779  0.60218186  0.49909189     0.06600
C987        C  0.21194251  0.57964529  0.49841750     0.26200
C988        C  0.21091135  0.56033472  0.47490070    -0.11500
C989        C  0.23118049  0.56284329  0.45211112    -0.25500
C990        C  0.25113032  0.58629760  0.45224010     0.37000
C991        C  0.23827297  0.61965372  0.52546330     0.06600
F992        F  0.19323306  0.57574673  0.52090225    -0.19300
H993        H  0.19539786  0.54242211  0.47530014     0.16400
F994        F  0.27065369  0.58984733  0.43034501    -0.23000
H995        H  0.26815798  0.62293714  0.47554971     0.18200
C996        C  0.24899300  0.60581382  0.55025397     0.26200
C997        C  0.26354465  0.62218325  0.57114868    -0.11500
C998        C  0.26907286  0.65242141  0.56688927    -0.25500
C999        C  0.25256537  0.66685401  0.54539951     0.37100
C1000       C  0.23826307  0.65042683  0.52425913    -0.27200
F1001       F  0.24831107  0.57613836  0.55277334    -0.19300
H1002       H  0.27255509  0.61047299  0.58928801     0.16400
F1003       F  0.25438611  0.69636801  0.54192571    -0.23000
H1004       H  0.22931746  0.66160217  0.50570830     0.18200
C1005       C  0.23618817  0.39532653  0.48614472    -0.27000
C1006       C  0.26036988  0.39959407  0.50412997     0.06600
C1007       C  0.27591423  0.42610296  0.50212622     0.26200
C1008       C  0.26905677  0.44668155  0.48098993    -0.11500
C1009       C  0.24635036  0.44159379  0.46151094    -0.25500
C1010       C  0.22904891  0.41627754  0.46502219     0.37000
C1011       C  0.27230914  0.37518799  0.52177762     0.06600
F1012       F  0.29872765  0.43148945  0.51982132    -0.19300
H1013       H  0.28228292  0.46630841  0.47922982     0.16400
F1014       F  0.20670178  0.41075559  0.44682922    -0.23000
H1015       H  0.22395609  0.37503188  0.48729763     0.18200
C1016       C  0.25599003  0.36075294  0.54326196     0.26200
C1017       C  0.26888635  0.33857656  0.56009551    -0.11500
C1018       C  0.29803732  0.32929681  0.55501713    -0.25500
C1019       C  0.31402857  0.34457123  0.53333242     0.37100
C1020       C  0.30127256  0.36672590  0.51708895    -0.27200
F1021       F  0.22796372  0.36881579  0.54868855    -0.19300
H1022       H  0.25601655  0.32939981  0.57748056     0.16400
F1023       F  0.34221535  0.33785819  0.52721353    -0.23000
H1024       H  0.31426398  0.37741119  0.50051871     0.18200
C1025       C  0.23233827  0.60265048  0.30791960    -0.27000
C1026       C  0.25390253  0.59710260  0.28687999     0.06600
C1027       C  0.26563847  0.56870356  0.28455414     0.26200
C1028       C  0.25810733  0.54713080  0.30460795    -0.11500
C1029       C  0.23850813  0.55328843  0.32717041    -0.25500
C1030       C  0.22455440  0.58078204  0.32798982     0.37000
C1031       C  0.26856097  0.62155257  0.27141946     0.06600
F1032       F  0.28622698  0.56257032  0.26422722    -0.19300
H1033       H  0.26906281  0.52605685  0.30362677     0.16400
F1034       F  0.20582714  0.58744327  0.34981717    -0.23000
H1035       H  0.22328374  0.62449495  0.31020626     0.18200
C1036       C  0.25459221  0.63871655  0.25052478     0.26200
C1037       C  0.27029318  0.66028785  0.23516308    -0.11500
C1038       C  0.30012527  0.66585682  0.24098959    -0.25500
C1039       C  0.31353270  0.64825434  0.26244254     0.37100
C1040       C  0.29794871  0.62677496  0.27727335    -0.27200
F1041       F  0.22614520  0.63386700  0.24420435    -0.19300
H1042       H  0.25903045  0.67182396  0.21822796     0.16400
F1043       F  0.34196402  0.65193900  0.26949119    -0.23000
H1044       H  0.30906990  0.61384606  0.29345039     0.18200
C1045       C  0.24896150  0.38496258  0.31534442    -0.27000
C1046       C  0.26931084  0.39224196  0.29360053     0.06600
C1047       C  0.27973541  0.42124145  0.29193967     0.26200
C1048       C  0.27170123  0.44179829  0.31273791    -0.11500
C1049       C  0.25249136  0.43427234  0.33518911    -0.25500
C1050       C  0.24045105  0.40590924  0.33600362     0.37000
C1051       C  0.28130210  0.36960457  0.27370619     0.06600
F1052       F  0.29811644  0.42961938  0.27035736    -0.19300
H1053       H  0.28079375  0.46371521  0.31149693     0.16400
F1054       F  0.22193844  0.39800352  0.35761805    -0.23000
H1055       H  0.24058892  0.36280231  0.31698297     0.18200
C1056       C  0.31158939  0.36659253  0.27049314     0.26200
C1057       C  0.32320427  0.34784314  0.24979423    -0.11500
C1058       C  0.30526494  0.33128056  0.23117858    -0.25500
C1059       C  0.27471635  0.33206994  0.23672219     0.37100
C1060       C  0.26303356  0.35141729  0.25744238    -0.27200
F1061       F  0.33015980  0.38202838  0.28732508    -0.19300
H1062       H  0.34673430  0.34705639  0.24751356     0.16400
F1063       F  0.25592295  0.31392582  0.22316912    -0.23000
H1064       H  0.23959675  0.35251349  0.26048094     0.18200
C1065       C  0.58432941  0.70226177  0.50524851    -0.27000
C1066       C  0.59179507  0.72634685  0.52237519     0.06600
C1067       C  0.57994491  0.75401160  0.51603544     0.26200
C1068       C  0.56071060  0.75732218  0.49283760    -0.11500
C1069       C  0.55311039  0.73309622  0.47562830    -0.25500
C1070       C  0.56531973  0.70546208  0.48213054     0.37000
C1071       C  0.61181446  0.72151607  0.54678155     0.06600
F1072       F  0.58648145  0.77757577  0.53257950    -0.19300
H1073       H  0.55159329  0.77879561  0.48848383     0.16400
F1074       F  0.55913278  0.68140570  0.46611769    -0.23000
H1075       H  0.59341624  0.68079510  0.50981131     0.18200
C1076       C  0.60301388  0.70346891  0.56962161     0.26200
C1077       C  0.62356456  0.69179358  0.58846017    -0.11500
C1078       C  0.65374465  0.69830002  0.58566684    -0.25500
C1079       C  0.66182650  0.71878176  0.56392155     0.37100
C1080       C  0.64110671  0.73003886  0.54472875    -0.27200
F1081       F  0.57467366  0.69511177  0.57227011    -0.19300
H1082       H  0.61545298  0.67535815  0.60312714     0.16400
F1083       F  0.69025616  0.72598125  0.55957326    -0.23000
H1084       H  0.64831361  0.74379843  0.52700216     0.18200
C1085       C  0.39144119  0.74373397  0.49867887    -0.27000
C1086       C  0.38723683  0.71464993  0.50787081     0.06600
C1087       C  0.40581953  0.69259612  0.49729903     0.26200
C1088       C  0.42761387  0.69931289  0.47725055    -0.11500
C1089       C  0.43155872  0.72819953  0.46726967    -0.25500
C1090       C  0.41347043  0.75055431  0.47849108     0.37000
C1091       C  0.36196553  0.70633473  0.52619218     0.06600
F1092       F  0.40260105  0.66435994  0.50616987    -0.19300
H1093       H  0.44142021  0.68168578  0.46942836     0.16400
F1094       F  0.41633763  0.77868168  0.46926293    -0.23000
H1095       H  0.37707511  0.76093645  0.50642920     0.18200
C1096       C  0.35992455  0.71433888  0.55524058     0.26200
C1097       C  0.33762859  0.70273540  0.57275569    -0.11500
C1098       C  0.31589784  0.68379311  0.56163325    -0.25500
C1099       C  0.31900484  0.67562201  0.53210006     0.37100
C1100       C  0.34125698  0.68721395  0.51493026    -0.27200
F1101       F  0.38031450  0.73213003  0.56701879    -0.19300
H1102       H  0.33755110  0.70822443  0.59543594     0.16400
F1103       F  0.30302577  0.65413522  0.51978947    -0.23000
H1104       H  0.34319724  0.68000577  0.49276187     0.18200
C1105       C  0.64690769  0.74854242  0.27351801    -0.27000
C1106       C  0.62428109  0.73197309  0.28596390     0.06600
C1107       C  0.61895039  0.70373125  0.27557106     0.26200
C1108       C  0.63621129  0.69198861  0.25371516    -0.11500
C1109       C  0.65917625  0.70806196  0.24051099    -0.25500
C1110       C  0.66452655  0.73674414  0.25132420     0.37000
C1111       C  0.60725240  0.74236975  0.31127139     0.06600
F1112       F  0.59720750  0.68708769  0.28709487    -0.19300
H1113       H  0.63160967  0.66973430  0.24708661     0.16400
F1114       F  0.68782571  0.75276770  0.24244341    -0.23000
H1115       H  0.65175423  0.77015200  0.28186714     0.18200
C1116       C  0.60917568  0.72671938  0.33727830     0.26200
C1117       C  0.58804128  0.73043127  0.35875774    -0.11500
C1118       C  0.56482491  0.75014179  0.35500902    -0.25500
C1119       C  0.56431977  0.76788884  0.33018410     0.37100
C1120       C  0.58540336  0.76384553  0.30831381    -0.27200
F1121       F  0.63028832  0.70614040  0.34093736    -0.19300
H1122       H  0.58893672  0.71669493  0.37781169     0.16400
F1123       F  0.54202023  0.78698416  0.32587987    -0.23000
H1124       H  0.58345404  0.77592975  0.28831337     0.18200
C1125       C  0.34654829  0.72893664  0.29167839    -0.27000
C1126       C  0.37236260  0.74125620  0.28080405     0.06600
C1127       C  0.37630873  0.74290790  0.25081470     0.26200
C1128       C  0.35657369  0.72899544  0.23242157    -0.11500
C1129       C  0.33410460  0.71095496  0.24370961    -0.25500
C1130       C  0.32723152  0.71441713  0.27342892     0.37000
C1131       C  0.39679328  0.74708514  0.30078684     0.06600
F1132       F  0.40037686  0.75602412  0.23945523    -0.19300
H1133       H  0.36114820  0.72906369  0.20950524     0.16400
F1134       F  0.30247970  0.70332781  0.28539499    -0.23000
H1135       H  0.34234737  0.72862145  0.31467087     0.18200
C1136       C  0.39351920  0.76560238  0.32482448     0.26200
C1137       C  0.41520221  0.76652137  0.34601999    -0.11500
C1138       C  0.43996050  0.74833750  0.34394957    -0.25500
C1139       C  0.44361986  0.73068785  0.31937879     0.37100
C1140       C  0.42238063  0.73032648  0.29796304    -0.27200
F1141       F  0.36902619  0.78207340  0.32817971    -0.19300
H1142       H  0.41194628  0.78030634  0.36475630     0.16400
F1143       F  0.46752423  0.71330951  0.31631206    -0.23000
H1144       H  0.42518687  0.71563561  0.27982543     0.18200
C1145       C  0.73544122  0.60689120  0.48503085    -0.27000
C1146       C  0.72036594  0.59929825  0.51053032     0.06600
C1147       C  0.71338819  0.56954109  0.51535640     0.26200
C1148       C  0.71927642  0.54847351  0.49431642    -0.11500
C1149       C  0.73319569  0.55623812  0.46844742    -0.25500
C1150       C  0.74209905  0.58546259  0.46423691     0.37000
C1151       C  0.70983879  0.62211990  0.53119486     0.06600
F1152       F  0.70036248  0.56082606  0.54031606    -0.19300
H1153       H  0.71252690  0.52599292  0.49805152     0.16400
F1154       F  0.75537222  0.59362961  0.43924592    -0.23000
H1155       H  0.74089789  0.62956615  0.48058113     0.18200
C1156       C  0.72765879  0.64510491  0.54100489     0.26200
C1157       C  0.71747993  0.66439335  0.56248269    -0.11500
C1158       C  0.68975413  0.66049927  0.57565464    -0.25500
C1159       C  0.67112719  0.63920542  0.56318316     0.37100
C1160       C  0.68111524  0.62049373  0.54159667    -0.27200
F1161       F  0.75518581  0.64849206  0.53053014    -0.19300
H1162       H  0.73160864  0.68219255  0.56870886     0.16400
F1163       F  0.64333602  0.63535629  0.57275758    -0.23000
H1164       H  0.66626369  0.60415685  0.53327821     0.18200
C1165       C  0.73521621  0.38464408  0.48212917    -0.27000
C1166       C  0.75045801  0.39012314  0.50764686     0.06600
C1167       C  0.76680437  0.41611772  0.51004490     0.26200
C1168       C  0.76662586  0.43684742  0.48767058    -0.11500
C1169       C  0.74954120  0.43215608  0.46313867    -0.25500
C1170       C  0.73444814  0.40557163  0.46020458     0.37000
C1171       C  0.74420960  0.37110301  0.53279887     0.06600
F1172       F  0.78172936  0.42200930  0.53448203    -0.19300
H1173       H  0.77836037  0.45728544  0.49024444     0.16400
F1174       F  0.71816727  0.40025991  0.43648946    -0.23000
H1175       H  0.72219763  0.36494091  0.48000339     0.18200
C1176       C  0.72846032  0.38265594  0.55616467     0.26200
C1177       C  0.71250341  0.36402286  0.57416823    -0.11500
C1178       C  0.71086671  0.33354851  0.56849775    -0.25500
C1179       C  0.73196862  0.32183790  0.54922068     0.37100
C1180       C  0.74756445  0.34056085  0.53071787    -0.27200
F1181       F  0.72559293  0.41210421  0.55958676    -0.19300
H1182       H  0.69984385  0.37406071  0.59125551     0.16400
F1183       F  0.73418654  0.29243747  0.54515465    -0.23000
H1184       H  0.76034877  0.33121486  0.51327513     0.18200
C1185       C  0.71548800  0.38996910  0.32333815    -0.27000
C1186       C  0.73045890  0.39399857  0.29713634     0.06600
C1187       C  0.74966142  0.41797519  0.29428897     0.26200
C1188       C  0.75324494  0.43781778  0.31711248    -0.11500
C1189       C  0.73705228  0.43455616  0.34273262    -0.25500
C1190       C  0.71847134  0.41014343  0.34580074     0.37000
C1191       C  0.72297854  0.37523820  0.27207313     0.06600
F1192       F  0.76433687  0.42259039  0.26918131    -0.19300
H1193       H  0.76754023  0.45652782  0.31424221     0.16400
F1194       F  0.70278541  0.40605069  0.37041771    -0.23000
H1195       H  0.70033443  0.37189892  0.32590376     0.18200
C1196       C  0.72485174  0.34456803  0.27341810     0.26200
C1197       C  0.71334206  0.32725477  0.25132348    -0.11500
C1198       C  0.69928017  0.33969147  0.22701575    -0.25500
C1199       C  0.69747555  0.37102418  0.22640532     0.37100
C1200       C  0.70988579  0.38809896  0.24810702    -0.27200
F1201       F  0.73704254  0.33126823  0.29657150    -0.19300
H1202       H  0.71426242  0.30363216  0.25380645     0.16400
F1203       F  0.68068560  0.38596171  0.20757192    -0.23000
H1204       H  0.70705571  0.41170317  0.24733730     0.18200
C1205       C  0.69125817  0.59471142  0.32213653    -0.27000
C1206       C  0.71481670  0.60558105  0.30581432     0.06600
C1207       C  0.74299964  0.59490686  0.31113821     0.26200
C1208       C  0.74726392  0.57285178  0.33175034    -0.11500
C1209       C  0.72351698  0.56117494  0.34746927    -0.25500
C1210       C  0.69545448  0.57282289  0.34280365     0.37000
C1211       C  0.70911939  0.62629085  0.28189715     0.06600
F1212       F  0.76615679  0.60488386  0.29556817    -0.19300
H1213       H  0.76913891  0.56451486  0.33499528     0.16400
F1214       F  0.67195226  0.56298215  0.35795539    -0.23000
H1215       H  0.66939733  0.60293096  0.31847656     0.18200
C1216       C  0.69010873  0.61806162  0.25998073     0.26200
C1217       C  0.68205562  0.63807594  0.23881811    -0.11500
C1218       C  0.69303260  0.66720450  0.23820864    -0.25500
C1219       C  0.71239999  0.67513736  0.26063090     0.37100
C1220       C  0.72068530  0.65474940  0.28178346    -0.27200
F1221       F  0.67824888  0.59076018  0.25968374    -0.19300
H1222       H  0.66523363  0.63076336  0.22444348     0.16400
F1223       F  0.72240734  0.70304680  0.26280990    -0.23000
H1224       H  0.73506418  0.66161395  0.29888974     0.18200
C1225       C  0.60087511  0.58196551  0.68232479    -0.27000
C1226       C  0.60175202  0.60518475  0.66235904     0.06600
C1227       C  0.57886772  0.60829758  0.64265610     0.26200
C1228       C  0.55628516  0.58785834  0.64199776    -0.11500
C1229       C  0.55568534  0.56403832  0.66119530    -0.25500
C1230       C  0.57767536  0.56173580  0.68212280     0.37000
C1231       C  0.62802581  0.62368943  0.65834573     0.06600
F1232       F  0.57946023  0.63001588  0.62259440    -0.19300
H1233       H  0.53958843  0.59018482  0.62576020     0.16400
F1234       F  0.57778818  0.53897666  0.70101341    -0.23000
H1235       H  0.61856526  0.57901902  0.69738465     0.18200
C1236       C  0.62635305  0.65428903  0.66143395     0.26200
C1237       C  0.64601074  0.67240478  0.64643410    -0.11500
C1238       C  0.66552139  0.66021673  0.62594005    -0.25500
C1239       C  0.67141858  0.62972632  0.62860224     0.37100
C1240       C  0.65229476  0.61165222  0.64417115    -0.27200
F1241       F  0.60373834  0.66662432  0.67610506    -0.19300
H1242       H  0.64269936  0.69590588  0.64731306     0.16400
F1243       F  0.69432306  0.61686475  0.61486190    -0.23000
H1244       H  0.65483051  0.58805914  0.64274980     0.18200
C1245       C  0.41035903  0.60551139  0.62786358    -0.27000
C1246       C  0.38317421  0.59884275  0.64031527     0.06600
C1247       C  0.38079130  0.57464962  0.65902654     0.26200
C1248       C  0.40513356  0.55657325  0.66392161    -0.11500
C1249       C  0.43175477  0.56214393  0.64966181    -0.25500
C1250       C  0.43439076  0.58729584  0.63229639     0.37000
C1251       C  0.35711656  0.61388626  0.62886651     0.06600
F1252       F  0.35455063  0.56724716  0.67068754    -0.19300
H1253       H  0.40262550  0.53709857  0.67712467     0.16400
F1254       F  0.45992591  0.59353396  0.61855959    -0.23000
H1255       H  0.41247203  0.62392584  0.61319321     0.18200
C1256       C  0.34267404  0.63642013  0.64378745     0.26200
C1257       C  0.32127926  0.65340541  0.62991398    -0.11500
C1258       C  0.31356360  0.64803698  0.60084555    -0.25500
C1259       C  0.32830589  0.62464291  0.58661714     0.37100
C1260       C  0.34925380  0.60786399  0.60056139    -0.27200
F1261       F  0.35043448  0.64309250  0.67113956    -0.19300
H1262       H  0.31217964  0.67170663  0.64169555     0.16400
F1263       F  0.32332609  0.61828666  0.55860511    -0.23000
H1264       H  0.36048488  0.59075210  0.58863916     0.18200
C1265       C  0.40803303  0.40949576  0.59658569    -0.27000
C1266       C  0.39523853  0.39329031  0.61910328     0.06600
C1267       C  0.40237507  0.40017225  0.64765147     0.26200
C1268       C  0.42230630  0.42272972  0.65340399    -0.11500
C1269       C  0.43545846  0.43875193  0.63079161    -0.25500
C1270       C  0.42786744  0.43193857  0.60221820     0.37000
C1271       C  0.37583911  0.36836863  0.61193831     0.06600
F1272       F  0.39096184  0.38439384  0.66984575    -0.19300
H1273       H  0.42778079  0.42734509  0.67557346     0.16400
F1274       F  0.43974898  0.44666936  0.57955087    -0.23000
H1275       H  0.40275710  0.40454552  0.57441494     0.18200
C1276       C  0.34652726  0.36745584  0.62082696     0.26200
C1277       C  0.32771831  0.34601360  0.60981487    -0.11500
C1278       C  0.33748710  0.32473022  0.58967490    -0.25500
C1279       C  0.36759788  0.32591300  0.58152084     0.37100
C1280       C  0.38616628  0.34695911  0.59299045    -0.27200
F1281       F  0.33556815  0.38851435  0.63849679    -0.19300
H1282       H  0.30487407  0.34690426  0.61593810     0.16400
F1283       F  0.37920606  0.30967222  0.55991662    -0.23000
H1284       H  0.40863203  0.34768733  0.58550039     0.18200
C1285       C  0.60554693  0.42529517  0.62302287    -0.27000
C1286       C  0.59897179  0.39563479  0.62822417     0.06600
C1287       C  0.57234752  0.38841092  0.64180080     0.26200
C1288       C  0.55216738  0.41055374  0.64872232    -0.11500
C1289       C  0.55820872  0.43995498  0.64181407    -0.25500
C1290       C  0.58528125  0.44723386  0.62946215     0.37000
C1291       C  0.61907515  0.37273412  0.61701097     0.06600
F1292       F  0.56507453  0.35994476  0.64659401    -0.19300
H1293       H  0.53119895  0.40460385  0.65796249     0.16400
F1294       F  0.59185285  0.47557116  0.62309739    -0.23000
H1295       H  0.62611280  0.43137272  0.61299485     0.18200
C1296       C  0.62769905  0.37353083  0.58802593     0.26200
C1297       C  0.64832444  0.35379255  0.57760139    -0.11500
C1298       C  0.66203290  0.33300712  0.59575637    -0.25500
C1299       C  0.65110152  0.33049862  0.62435470     0.37100
C1300       C  0.63017179  0.35049821  0.63482390    -0.27200
F1301       F  0.61623104  0.39361227  0.56964759    -0.19300
H1302       H  0.65466564  0.35563055  0.55515813     0.16400
F1303       F  0.65948654  0.30846077  0.64209489    -0.23000
H1304       H  0.62292322  0.34886786  0.65702590     0.18200
loop_ 
_geom_bond_atom_site_label_1 
_geom_bond_atom_site_label_2 
_geom_bond_distance 
_geom_bond_site_symmetry_2 
_ccdc_geom_bond_type 
O1            V9   1.891       .  S
O1           C11   1.263       .  A
O2            V9   1.894       .  S
O2           C12   1.263       .  A
O3            V9   1.897       .  S
O3           C13   1.265       .  A
O4            V9   1.890       .  S
O4           C14   1.263       .  A
O5           V10   1.918       .  S
O5           C14   1.268       .  A
O6           V10   1.907       .  S
O6           C13   1.266       .  A
O7           V10   1.909       .  S
O7           C12   1.265       .  A
O8           V10   1.913       .  S
O8           C11   1.266       .  A
V9           V10   2.086       .  T
C11        C1249   1.476       .  S
C12        C1289   1.471       .  S
C13        C1269   1.487       .  S
C14        C1229   1.482       .  S
O15          V23   1.894       .  S
O15          C25   1.263       .  A
O16          V23   1.894       .  S
O16          C26   1.263       .  A
O17          V23   1.895       .  S
O17          C27   1.264       .  A
O18          V23   1.903       .  S
O18          C28   1.266       .  A
O19          V24   1.898       .  S
O19          C28   1.264       .  A
O20          V24   1.906       .  S
O20          C27   1.264       .  A
O21          V24   1.919       .  S
O21          C26   1.269       .  A
O22          V24   1.915       .  S
O22          C25   1.267       .  A
V23          V24   2.085       .  T
C25        C1149   1.476       .  S
C26        C1189   1.482       .  S
C27        C1169   1.471       .  S
C28        C1209   1.485       .  S
O29          V37   1.890       .  S
O29          C39   1.263       .  A
O30          V37   1.887       .  S
O30          C40   1.262       .  A
O31          V37   1.896       .  S
O31          C41   1.264       .  A
O32          V37   1.901       .  S
O32          C42   1.265       .  A
O33          V38   1.910       .  S
O33          C42   1.266       .  A
O34          V38   1.911       .  S
O34          C41   1.267       .  A
O35          V38   1.921       .  S
O35          C40   1.268       .  A
O36          V38   1.915       .  S
O36          C39   1.268       .  A
V37          V38   2.084       .  T
C39        C1089   1.485       .  S
C40        C1118   1.478       .  S
C41        C1069   1.488       .  S
C42        C1138   1.482       .  S
O43          V51   1.914       .  S
O43          C53   1.267       .  A
O44          V51   1.915       .  S
O44          C54   1.267       .  A
O45          V51   1.917       .  S
O45          C55   1.268       .  A
O46          V51   1.922       .  S
O46          C56   1.269       .  A
O47          V52   1.885       .  S
O47          C56   1.261       .  A
O48          V52   1.890       .  S
O48          C55   1.263       .  A
O49          V52   1.892       .  S
O49          C54   1.263       .  A
O50          V52   1.894       .  S
O50          C53   1.263       .  A
V51          V52   2.085       .  T
C53         C989   1.482       .  S
C54        C1049   1.475       .  S
C55        C1009   1.483       .  S
C56        C1029   1.475       .  S
O57          V65   1.886       .  S
O57          C67   1.262       .  A
O58          V65   1.887       .  S
O58          C68   1.261       .  A
O59          V65   1.895       .  S
O59          C69   1.264       .  A
O60          V65   1.899       .  S
O60          C70   1.265       .  A
O61          V66   1.906       .  S
O61          C70   1.265       .  A
O62          V66   1.905       .  S
O62          C69   1.265       .  A
O63          V66   1.919       .  S
O63          C68   1.269       .  A
O64          V66   1.919       .  S
O64          C67   1.269       .  A
V65          V66   2.081       .  T
C67         C929   1.488       .  S
C68         C969   1.477       .  S
C69         C909   1.476       .  S
C70         C958   1.475       .  S
O71          V79   1.912       .  S
O71          C81   1.267       .  A
O72          V79   1.913       .  S
O72          C82   1.266       .  A
O73          V79   1.916       .  S
O73          C83   1.268       .  A
O74          V79   1.915       .  S
O74          C84   1.268       .  A
O75          V80   1.890       .  S
O75          C84   1.263       .  A
O76          V80   1.895       .  S
O76          C83   1.264       .  A
O77          V80   1.892       .  S
O77          C82   1.263       .  A
O78          V80   1.898       .  S
O78          C81   1.265       .  A
V79          V80   2.084       .  T
C81         C878   1.490       .  S
C82         C838   1.476       .  S
C83         C898   1.490       .  S
C84         C849   1.486       .  S
C85         C809   1.558       .  S
C85        C1078   1.568       .  S
C85        C1158   1.564       .  S
C85        C1238   1.562       .  S
C86         C749   1.575       .  S
C86         C778   1.562       .  S
C86         C789   1.565       .  S
C86         C818   1.562       .  S
C87         C738   1.555       .  S
C87         C938   1.566       .  S
C87        C1178   1.563       .  S
C87        C1298   1.560       .  S
C88         C678   1.562       .  S
C88         C698   1.566       .  S
C88         C718   1.574       .  S
C88         C729   1.565       .  S
C89         C658   1.565       .  S
C89         C998   1.559       .  S
C89        C1098   1.570       .  S
C89        C1258   1.565       .  S
C90         C589   1.562       .  S
C90         C609   1.572       .  S
C90         C629   1.568       .  S
C90         C649   1.566       .  S
C91         C569   1.561       .  S
C91         C858   1.562       .  S
C91        C1109   1.563       .  S
C91        C1218   1.567       .  S
C92         C518   1.574       .  S
C92         C538   1.564       .  S
C92         C549   1.562       .  S
C92         C578   1.567       .  S
C93         C489   1.561       .  S
C93         C918   1.554       .  S
C93        C1018   1.564       .  S
C93        C1278   1.570       .  S
C94         C438   1.562       .  S
C94         C458   1.561       .  S
C94         C478   1.569       .  S
C94         C498   1.562       .  S
C95         C418   1.565       .  S
C95         C869   1.574       .  S
C95        C1038   1.561       .  S
C95        C1129   1.564       .  S
C96         C358   1.571       .  S
C96         C378   1.563       .  S
C96         C389   1.569       .  S
C96         C409   1.566       .  S
C97         C329   1.571       .  S
C97         C829   1.565       .  S
C97         C949   1.558       .  S
C97        C1198   1.580       .  S
C98         C278   1.578       .  S
C98         C289   1.573       .  S
C98         C309   1.567       .  S
C98         C338   1.568       .  S
C99         C258   1.561       .  S
C99         C889   1.568       .  S
C99         C978   1.569       .  S
C99        C1058   1.566       .  S
C100        C189   1.565       .  S
C100        C209   1.559       .  S
C100        C238   1.574       .  S
C100        C249   1.564       .  S
O101        V109   1.892   1_565  S
O101        C111   1.264       .  A
O102        V109   1.889       .  S
O102        C112   1.263       .  A
O103        V109   1.901       .  S
O103        C113   1.266       .  A
O104        V109   1.904   1_565  S
O104        C114   1.266       .  A
O105        V110   1.913   1_565  S
O105        C114   1.268       .  A
O106        V110   1.913       .  S
O106        C113   1.267       .  A
O107        V110   1.918       .  S
O107        C112   1.269       .  A
O108        V110   1.920   1_565  S
O108        C111   1.269       .  A
V109        V110   2.078       .  T
C111        C618   1.487       .  S
C112        C218   1.480       .  S
C113        C449   1.482       .  S
C114        C369   1.488       .  S
O115        V123   1.913   1_455  S
O115        C125   1.267       .  A
O116        V123   1.911       .  S
O116        C126   1.267       .  A
O117        V123   1.913       .  S
O117        C127   1.267       .  A
O118        V123   1.911   1_455  S
O118        C128   1.267       .  A
O119        V124   1.899       .  S
O119        C128   1.264       .  A
O120        V124   1.900   1_655  S
O120        C127   1.266       .  A
O121        V124   1.900   1_655  S
O121        C126   1.265       .  A
O122        V124   1.899       .  S
O122        C125   1.265       .  A
V123        V124   2.079   1_655  T
C125        C198   1.482       .  S
C126        C689   1.483       .  S
C127        C298   1.485       .  S
C128        C469   1.477       .  S
O129        V137   1.887       .  S
O129        C139   1.262       .  A
O130        V137   1.891   1_645  S
O130        C140   1.262       .  A
O131        V137   1.899   1_545  S
O131        C141   1.266       .  A
O132        V137   1.894   1_655  S
O132        C142   1.263       .  A
O133        V138   1.914   1_665  S
O133        C142   1.267       .  A
O134        V138   1.910       .  S
O134        C141   1.266       .  A
O135        V138   1.923   1_655  S
O135        C140   1.269       .  A
O136        V138   1.926   1_565  S
O136        C139   1.270       .  A
V137        V138   2.085   1_565  T
C139        C398   1.483       .  S
C140        C318   1.483       .  S
C141        C229   1.490       .  S
C142        C558   1.476       .  S
O143        V151   1.916       .  S
O143        C153   1.267       .  A
O144        V151   1.914   1_545  S
O144        C154   1.267       .  A
O145        V151   1.924   1_545  S
O145        C155   1.269       .  A
O146        V151   1.921       .  S
O146        C156   1.269       .  A
O147        V152   1.888       .  S
O147        C156   1.262       .  A
O148        V152   1.891   1_545  S
O148        C155   1.263       .  A
O149        V152   1.891   1_545  S
O149        C154   1.264       .  A
O150        V152   1.887       .  S
O150        C153   1.261       .  A
V151        V152   2.086       .  T
C153        C769   1.469       .  S
C154        C269   1.487       .  S
C155        C669   1.484       .  S
C156        C529   1.483       .  S
O157        V165   1.924       .  S
O157        C167   1.270       .  A
O158        V165   1.922   1_645  S
O158        C168   1.270       .  A
O159        V165   1.904   1_545  S
O159        C169   1.265       .  A
O160        V165   1.906   1_655  S
O160        C170   1.265       .  A
O161        V166   1.901       .  S
O161        C170   1.266       .  A
O162        V166   1.903   1_445  S
O162        C169   1.266       .  A
O163        V166   1.889   1_545  S
O163        C168   1.262       .  A
O164        V166   1.889   1_455  S
O164        C167   1.262       .  A
V165        V166   2.078   1_455  T
C167        C638   1.481       .  S
C168        C709   1.482       .  S
C169        C429   1.478       .  S
C170        C798   1.478       .  S
O171        V179   1.887       .  S
O171        C181   1.262       .  A
O172        V179   1.890   1_655  S
O172        C182   1.264       .  A
O173        V179   1.894   1_655  S
O173        C183   1.265       .  A
O174        V179   1.899       .  S
O174        C184   1.265       .  A
O175        V180   1.910       .  S
O175        C184   1.266       .  A
O176        V180   1.909   1_655  S
O176        C183   1.266       .  A
O177        V180   1.920   1_655  S
O177        C182   1.269       .  A
O178        V180   1.922       .  S
O178        C181   1.269       .  A
V179        V180   2.083       .  T
C181        C349   1.485       .  S
C182        C758   1.491       .  S
C183        C509   1.486       .  S
C184        C598   1.480       .  S
C185        C186   1.397       .  A
C185        C190   1.397       .  A
C185        H195   1.084   1_554  S
C186        C191   1.482   1_554  S
C186        C187   1.405       .  A
C187        C188   1.404       .  A
C187        F192   1.357       .  S
C188        C189   1.414       .  A
C188        H193   1.083       .  S
C189        C190   1.424       .  A
C190        F194   1.357       .  S
C191        C196   1.406       .  A
C191        C200   1.403   1_556  A
C196        C197   1.405       .  A
C196        F201   1.357       .  S
C197        C198   1.407       .  A
C197        H202   1.083       .  S
C198        C199   1.407       .  A
C199        C200   1.398   1_556  A
C199        F203   1.358       .  S
C200        H204   1.084       .  S
C205        C206   1.397       .  A
C205        C210   1.389       .  A
C205        H215   1.084       .  S
C206        C211   1.484       .  S
C206        C207   1.405       .  A
C207        C208   1.407       .  A
C207        F212   1.357       .  S
C208        C209   1.417       .  A
C208        H213   1.079       .  S
C209        C210   1.421       .  A
C210        F214   1.357       .  S
C211        C216   1.406       .  A
C211        C220   1.406   1_554  A
C216        C217   1.394   1_554  A
C216        F221   1.358       .  S
C217        C218   1.403       .  A
C217        H222   1.084       .  S
C218        C219   1.408       .  A
C219        C220   1.406       .  A
C219        F223   1.357       .  S
C220        H224   1.083       .  S
C225        C226   1.405       .  A
C225        C230   1.407       .  A
C225        H235   1.083       .  S
C226        C231   1.486       .  S
C226        C227   1.405       .  A
C227        C228   1.395       .  A
C227        F232   1.358       .  S
C228        C229   1.406       .  A
C228        H233   1.083       .  S
C229        C230   1.413       .  A
C230        F234   1.357       .  S
C231        C236   1.400       .  A
C231        C240   1.400       .  A
C236        C237   1.395       .  A
C236        F241   1.358       .  S
C237        C238   1.419       .  A
C237        H242   1.075       .  S
C238        C239   1.424       .  A
C239        C240   1.404       .  A
C239        F243   1.357       .  S
C240        H244   1.083       .  S
C245        C246   1.400       .  A
C245        C250   1.404       .  A
C245        H255   1.083       .  S
C246        C251   1.487       .  S
C246        C247   1.401       .  A
C247        C248   1.402       .  A
C247        F252   1.358       .  S
C248        C249   1.418       .  A
C248        H253   1.079       .  S
C249        C250   1.420       .  A
C250        F254   1.356       .  S
C251        C256   1.401       .  A
C251        C260   1.401       .  A
C256        C257   1.401       .  A
C256        F261   1.358       .  S
C257        C258   1.418       .  A
C257        H262   1.079       .  S
C258        C259   1.420       .  A
C259        C260   1.404       .  A
C259        F263   1.357       .  S
C260        H264   1.083       .  S
C265        C266   1.406   1_556  A
C265        C270   1.408       .  A
C265        H275   1.083   1_556  S
C266        C271   1.485       .  S
C266        C267   1.404   1_554  A
C267        C268   1.392       .  A
C267        F272   1.358       .  S
C268        C269   1.405       .  A
C268        H273   1.083       .  S
C269        C270   1.413       .  A
C270        F274   1.357       .  S
C271        C276   1.398       .  A
C271        C280   1.400       .  A
C276        C277   1.392       .  A
C276        F281   1.359   1_554  S
C277        C278   1.419       .  A
C277        H282   1.073       .  S
C278        C279   1.427       .  A
C279        C280   1.407       .  A
C279        F283   1.358       .  S
C280        H284   1.083       .  S
C285        C286   1.405       .  A
C285        C290   1.408       .  A
C285        H295   1.083       .  S
C286        C291   1.483   1_554  S
C286        C287   1.398       .  A
C287        C288   1.395       .  A
C287        F292   1.358       .  S
C288        C289   1.418       .  A
C288        H293   1.080       .  S
C289        C290   1.420       .  A
C290        F294   1.358       .  S
C291        C296   1.405       .  A
C291        C300   1.406       .  A
C296        C297   1.398       .  A
C296        F301   1.358       .  S
C297        C298   1.405       .  A
C297        H302   1.083       .  S
C298        C299   1.409       .  A
C299        C300   1.406       .  A
C299        F303   1.357       .  S
C300        H304   1.083   1_556  S
C305        C306   1.404       .  A
C305        C310   1.409       .  A
C305        H315   1.083       .  S
C306        C311   1.488       .  S
C306        C307   1.400       .  A
C307        C308   1.392       .  A
C307        F312   1.358       .  S
C308        C309   1.417       .  A
C308        H313   1.083       .  S
C309        C310   1.423       .  A
C310        F314   1.354       .  S
C311        C316   1.409       .  A
C311        C320   1.403       .  A
C316        C317   1.409       .  A
C316        F321   1.357       .  S
C317        C318   1.407       .  A
C317        H322   1.083       .  S
C318        C319   1.407       .  A
C319        C320   1.396       .  A
C319        F323   1.358       .  S
C320        H324   1.084       .  S
C325        C326   1.410       .  A
C325        C330   1.402       .  A
C325        H335   1.079       .  S
C326        C331   1.521       .  S
C326        C327   1.415       .  A
C327        C328   1.404       .  A
C327        F332   1.356       .  S
C328        C329   1.415       .  A
C328        H333   1.076       .  S
C329        C330   1.419       .  A
C330        F334   1.356       .  S
C331        C336   1.415       .  A
C331        C340   1.410       .  A
C336        C337   1.404       .  A
C336        F341   1.356       .  S
C337        C338   1.415       .  A
C337        H342   1.076       .  S
C338        C339   1.418       .  A
C339        C340   1.402       .  A
C339        F343   1.356       .  S
C340        H344   1.079       .  S
C345        C346   1.405   1_556  A
C345        C350   1.408       .  A
C345        H355   1.083   1_556  S
C346        C351   1.478       .  S
C346        C347   1.401       .  A
C347        C348   1.394   1_554  A
C347        F352   1.358       .  S
C348        C349   1.406       .  A
C348        H353   1.083       .  S
C349        C350   1.410       .  A
C350        F354   1.357       .  S
C351        C356   1.399       .  A
C351        C360   1.394       .  A
C356        C357   1.403       .  A
C356        F361   1.357       .  S
C357        C358   1.420       .  A
C357        H362   1.083       .  S
C358        C359   1.428       .  A
C359        C360   1.395       .  A
C359        F363   1.352       .  S
C360        H364   1.084   1_554  S
C365        C366   1.404   1_556  A
C365        C370   1.401       .  A
C365        H375   1.084       .  S
C366        C371   1.485       .  S
C366        C367   1.405       .  A
C367        C368   1.405   1_554  A
C367        F372   1.357       .  S
C368        C369   1.408       .  A
C368        H373   1.083       .  S
C369        C370   1.409       .  A
C370        F374   1.358       .  S
C371        C376   1.401       .  A
C371        C380   1.404       .  A
C376        C377   1.398       .  A
C376        F381   1.357       .  S
C377        C378   1.416       .  A
C377        H382   1.081       .  S
C378        C379   1.418       .  A
C379        C380   1.407       .  A
C379        F383   1.357       .  S
C380        H384   1.083       .  S
C385        C386   1.396       .  A
C385        C390   1.390       .  A
C385        H395   1.084       .  S
C386        C391   1.487       .  S
C386        C387   1.405       .  A
C387        C388   1.411       .  A
C387        F392   1.357       .  S
C388        C389   1.419       .  A
C388        H393   1.080       .  S
C389        C390   1.422       .  A
C390        F394   1.356       .  S
C391        C396   1.409       .  A
C391        C400   1.402       .  A
C396        C397   1.410       .  A
C396        F401   1.357       .  S
C397        C398   1.406       .  A
C397        H402   1.083       .  S
C398        C399   1.407       .  A
C399        C400   1.395       .  A
C399        F403   1.358       .  S
C400        H404   1.084       .  S
C405        C406   1.404       .  A
C405        C410   1.406       .  A
C405        H415   1.083       .  S
C406        C411   1.497       .  S
C406        C407   1.404       .  A
C407        C408   1.404       .  A
C407        F412   1.358       .  S
C408        C409   1.418       .  A
C408        H413   1.080       .  S
C409        C410   1.419       .  A
C410        F414   1.357       .  S
C411        C416   1.406       .  A
C411        C420   1.402       .  A
C416        C417   1.406       .  A
C416        F421   1.357       .  S
C417        C418   1.417       .  A
C417        H422   1.080       .  S
C418        C419   1.420       .  A
C419        C420   1.403       .  A
C419        F423   1.356       .  S
C420        H424   1.083       .  S
C425        C426   1.405       .  A
C425        C430   1.399       .  A
C425        H435   1.083       .  S
C426        C431   1.482       .  S
C426        C427   1.406       .  A
C427        C428   1.401       .  A
C427        F432   1.357       .  S
C428        C429   1.405       .  A
C428        H433   1.083       .  S
C429        C430   1.406       .  A
C430        F434   1.358       .  S
C431        C436   1.404       .  A
C431        C440   1.399       .  A
C436        C437   1.402       .  A
C436        F441   1.357       .  S
C437        C438   1.415       .  A
C437        H442   1.083       .  S
C438        C439   1.422       .  A
C439        C440   1.397       .  A
C439        F443   1.356       .  S
C440        H444   1.083       .  S
C445        C446   1.406       .  A
C445        C450   1.407       .  A
C445        H455   1.083       .  S
C446        C451   1.488       .  S
C446        C447   1.408       .  A
C447        C448   1.396       .  A
C447        F452   1.358       .  S
C448        C449   1.403       .  A
C448        H453   1.083       .  S
C449        C450   1.409       .  A
C450        F454   1.357       .  S
C451        C456   1.407       .  A
C451        C460   1.397       .  A
C456        C457   1.410       .  A
C456        F461   1.357       .  S
C457        C458   1.417       .  A
C457        H462   1.080       .  S
C458        C459   1.421       .  A
C459        C460   1.389       .  A
C459        F463   1.356       .  S
C460        H464   1.084       .  S
C465        C466   1.405       .  A
C465        C470   1.402       .  A
C465        H475   1.083       .  S
C466        C471   1.481       .  S
C466        C467   1.405       .  A
C467        C468   1.400       .  A
C467        F472   1.358       .  S
C468        C469   1.404       .  A
C468        H473   1.083       .  S
C469        C470   1.406       .  A
C470        F474   1.357       .  S
C471        C476   1.399       .  A
C471        C480   1.400       .  A
C476        C477   1.395       .  A
C476        F481   1.358       .  S
C477        C478   1.419       .  A
C477        H482   1.077       .  S
C478        C479   1.422       .  A
C479        C480   1.404       .  A
C479        F483   1.357       .  S
C480        H484   1.083       .  S
C485        C486   1.400       .  A
C485        C490   1.403       .  A
C485        H495   1.083       .  S
C486        C491   1.486       .  S
C486        C487   1.401       .  A
C487        C488   1.403       .  A
C487        F492   1.357       .  S
C488        C489   1.418       .  A
C488        H493   1.080       .  S
C489        C490   1.420       .  A
C490        F494   1.357       .  S
C491        C496   1.400       .  A
C491        C500   1.401       .  A
C496        C497   1.402       .  A
C496        F501   1.357       .  S
C497        C498   1.418       .  A
C497        H502   1.080       .  S
C498        C499   1.420       .  A
C499        C500   1.405       .  A
C499        F503   1.356       .  S
C500        H504   1.083       .  S
C505        C506   1.403       .  A
C505        C510   1.406   1_554  A
C505        H515   1.083       .  S
C506        C511   1.480       .  S
C506        C507   1.404   1_554  A
C507        C508   1.393       .  A
C507        F512   1.358   1_556  S
C508        C509   1.405       .  A
C508        H513   1.083       .  S
C509        C510   1.412       .  A
C510        F514   1.357       .  S
C511        C516   1.400       .  A
C511        C520   1.393       .  A
C516        C517   1.404       .  A
C516        F521   1.357       .  S
C517        C518   1.421       .  A
C517        H522   1.083       .  S
C518        C519   1.430       .  A
C519        C520   1.392       .  A
C519        F523   1.352       .  S
C520        H524   1.084       .  S
C525        C526   1.403   1_556  A
C525        C530   1.394       .  A
C525        H535   1.084       .  S
C526        C531   1.488       .  S
C526        C527   1.409       .  A
C527        C528   1.409   1_554  A
C527        F532   1.357       .  S
C528        C529   1.407       .  A
C528        H533   1.083       .  S
C529        C530   1.407       .  A
C530        F534   1.358       .  S
C531        C536   1.405       .  A
C531        C540   1.397       .  A
C536        C537   1.409       .  A
C536        F541   1.357       .  S
C537        C538   1.419       .  A
C537        H542   1.080       .  S
C538        C539   1.422       .  A
C539        C540   1.391       .  A
C539        F543   1.356       .  S
C540        H544   1.084       .  S
C545        C546   1.400       .  A
C545        C550   1.396       .  A
C545        H555   1.083       .  S
C546        C551   1.487       .  S
C546        C547   1.407       .  A
C547        C548   1.406       .  A
C547        F552   1.357       .  S
C548        C549   1.416       .  A
C548        H553   1.083       .  S
C549        C550   1.421       .  A
C550        F554   1.356       .  S
C551        C556   1.408       .  A
C551        C560   1.408       .  A
C556        C557   1.398       .  A
C556        F561   1.357       .  S
C557        C558   1.403       .  A
C557        H562   1.084       .  S
C558        C559   1.405       .  A
C559        C560   1.404       .  A
C559        F563   1.357       .  S
C560        H564   1.083       .  S
C565        C566   1.406       .  A
C565        C570   1.405       .  A
C565        H575   1.082       .  S
C566        C571   1.506       .  S
C566        C567   1.409       .  A
C567        C568   1.403       .  A
C567        F572   1.357       .  S
C568        C569   1.414       .  A
C568        H573   1.083       .  S
C569        C570   1.422       .  A
C570        F574   1.355       .  S
C571        C576   1.410       .  A
C571        C580   1.405       .  A
C576        C577   1.406       .  A
C576        F581   1.357       .  S
C577        C578   1.417       .  A
C577        H582   1.079       .  S
C578        C579   1.418       .  A
C579        C580   1.403       .  A
C579        F583   1.356       .  S
C580        H584   1.082       .  S
C585        C586   1.404       .  A
C585        C590   1.405       .  A
C585        H595   1.083       .  S
C586        C591   1.480       .  S
C586        C587   1.399       .  A
C587        C588   1.395       .  A
C587        F592   1.358       .  S
C588        C589   1.417       .  A
C588        H593   1.080       .  S
C589        C590   1.418       .  A
C590        F594   1.357       .  S
C591        C596   1.406       .  A
C591        C600   1.403       .  A
C596        C597   1.405       .  A
C596        F601   1.357       .  S
C597        C598   1.407       .  A
C597        H602   1.083       .  S
C598        C599   1.406       .  A
C599        C600   1.397       .  A
C599        F603   1.358       .  S
C600        H604   1.084       .  S
C605        C606   1.394       .  A
C605        C610   1.397       .  A
C605        H615   1.084       .  S
C606        C611   1.482       .  S
C606        C607   1.401       .  A
C607        C608   1.405       .  A
C607        F612   1.357       .  S
C608        C609   1.420       .  A
C608        H613   1.083       .  S
C609        C610   1.430       .  A
C610        F614   1.353       .  S
C611        C616   1.403       .  A
C611        C620   1.406       .  A
C616        C617   1.396       .  A
C616        F621   1.358       .  S
C617        C618   1.406       .  A
C617        H622   1.083       .  S
C618        C619   1.410       .  A
C619        C620   1.408       .  A
C619        F623   1.357       .  S
C620        H624   1.083       .  S
C625        C626   1.398       .  A
C625        C630   1.392       .  A
C625        H635   1.084       .  S
C626        C631   1.488       .  S
C626        C627   1.405       .  A
C627        C628   1.407       .  A
C627        F632   1.357       .  S
C628        C629   1.418       .  A
C628        H633   1.079       .  S
C629        C630   1.421       .  A
C630        F634   1.356       .  S
C631        C636   1.410       .  A
C631        C640   1.403       .  A
C636        C637   1.408       .  A
C636        F641   1.357       .  S
C637        C638   1.406       .  A
C637        H642   1.083       .  S
C638        C639   1.406       .  A
C639        C640   1.395       .  A
C639        F643   1.358       .  S
C640        H644   1.084       .  S
C645        C646   1.401       .  A
C645        C650   1.406       .  A
C645        H655   1.083       .  S
C646        C651   1.489       .  S
C646        C647   1.401       .  A
C647        C648   1.402       .  A
C647        F652   1.357       .  S
C648        C649   1.418       .  A
C648        H653   1.083       .  S
C649        C650   1.423       .  A
C650        F654   1.355       .  S
C651        C656   1.402       .  A
C651        C660   1.401       .  A
C656        C657   1.404       .  A
C656        F661   1.357       .  S
C657        C658   1.418       .  A
C657        H662   1.079       .  S
C658        C659   1.419       .  A
C659        C660   1.404       .  A
C659        F663   1.357       .  S
C660        H664   1.083       .  S
C665        C666   1.408       .  A
C665        C670   1.410       .  A
C665        H675   1.083       .  S
C666        C671   1.490       .  S
C666        C667   1.406       .  A
C667        C668   1.395       .  A
C667        F672   1.358       .  S
C668        C669   1.403       .  A
C668        H673   1.084       .  S
C669        C670   1.409       .  A
C670        F674   1.357       .  S
C671        C676   1.407       .  A
C671        C680   1.397       .  A
C676        C677   1.411       .  A
C676        F681   1.357       .  S
C677        C678   1.417       .  A
C677        H682   1.080       .  S
C678        C679   1.421       .  A
C679        C680   1.389       .  A
C679        F683   1.357       .  S
C680        H684   1.084       .  S
C685        C686   1.403       .  A
C685        C690   1.399       .  A
C685        H695   1.084       .  S
C686        C691   1.481       .  S
C686        C687   1.405       .  A
C687        C688   1.404       .  A
C687        F692   1.357       .  S
C688        C689   1.407       .  A
C688        H693   1.083       .  S
C689        C690   1.408       .  A
C690        F694   1.358       .  S
C691        C696   1.404       .  A
C691        C700   1.396       .  A
C696        C697   1.405       .  A
C696        F701   1.357       .  S
C697        C698   1.413       .  A
C697        H702   1.083       .  S
C698        C699   1.426       .  A
C699        C700   1.396       .  A
C699        F703   1.357       .  S
C700        H704   1.084       .  S
C705        C706   1.407       .  A
C705        C710   1.407       .  A
C705        H715   1.083       .  S
C706        C711   1.484       .  S
C706        C707   1.403       .  A
C707        C708   1.396       .  A
C707        F712   1.358       .  S
C708        C709   1.405       .  A
C708        H713   1.084       .  S
C709        C710   1.408       .  A
C710        F714   1.357       .  S
C711        C716   1.400       .  A
C711        C720   1.399       .  A
C716        C717   1.400       .  A
C716        F721   1.358       .  S
C717        C718   1.420       .  A
C717        H722   1.076       .  S
C718        C719   1.423       .  A
C719        C720   1.401       .  A
C719        F723   1.357       .  S
C720        H724   1.083       .  S
C725        C726   1.403       .  A
C725        C730   1.405       .  A
C725        H735   1.083       .  S
C726        C731   1.491       .  S
C726        C727   1.402       .  A
C727        C728   1.400       .  A
C727        F732   1.358       .  S
C728        C729   1.419       .  A
C728        H733   1.079       .  S
C729        C730   1.419       .  A
C730        F734   1.355       .  S
C731        C736   1.405       .  A
C731        C740   1.401       .  A
C736        C737   1.401       .  A
C736        F741   1.357       .  S
C737        C738   1.415       .  A
C737        H742   1.080       .  S
C738        C739   1.419       .  A
C739        C740   1.402       .  A
C739        F743   1.357       .  S
C740        H744   1.083       .  S
C745        C746   1.402       .  A
C745        C750   1.407       .  A
C745        H755   1.083       .  S
C746        C751   1.488       .  S
C746        C747   1.400       .  A
C747        C748   1.395       .  A
C747        F752   1.359       .  S
C748        C749   1.420       .  A
C748        H753   1.074       .  S
C749        C750   1.424       .  A
C750        F754   1.357       .  S
C751        C756   1.405       .  A
C751        C760   1.406       .  A
C756        C757   1.394       .  A
C756        F761   1.358       .  S
C757        C758   1.406       .  A
C757        H762   1.083       .  S
C758        C759   1.412       .  A
C759        C760   1.410       .  A
C759        F763   1.357       .  S
C760        H764   1.083       .  S
C765        C766   1.405       .  A
C765        C770   1.403       .  A
C765        H775   1.083       .  S
C766        C771   1.476       .  S
C766        C767   1.403       .  A
C767        C768   1.397       .  A
C767        F772   1.357       .  S
C768        C769   1.402       .  A
C768        H773   1.084       .  S
C769        C770   1.405       .  A
C770        F774   1.358       .  S
C771        C776   1.401       .  A
C771        C780   1.395       .  A
C776        C777   1.405       .  A
C776        F781   1.357       .  S
C777        C778   1.418       .  A
C777        H782   1.080       .  S
C778        C779   1.421       .  A
C779        C780   1.392       .  A
C779        F783   1.357       .  S
C780        H784   1.084       .  S
C785        C786   1.402       .  A
C785        C790   1.403       .  A
C785        H795   1.083       .  S
C786        C791   1.477       .  S
C786        C787   1.398       .  A
C787        C788   1.394       .  A
C787        F792   1.358       .  S
C788        C789   1.418       .  A
C788        H793   1.080       .  S
C789        C790   1.417       .  A
C790        F794   1.357       .  S
C791        C796   1.404       .  A
C791        C800   1.403       .  A
C796        C797   1.396       .  A
C796        F801   1.358       .  S
C797        C798   1.403       .  A
C797        H802   1.083       .  S
C798        C799   1.409       .  A
C799        C800   1.404       .  A
C799        F803   1.357       .  S
C800        H804   1.083       .  S
C805        C806   1.408       .  A
C805        C810   1.403       .  A
C805        H815   1.080       .  S
C806        C811   1.512       .  S
C806        C807   1.414       .  A
C807        C808   1.402       .  A
C807        F812   1.357       .  S
C808        C809   1.413       .  A
C808        H813   1.082       .  S
C809        C810   1.417       .  A
C810        F814   1.356       .  S
C811        C816   1.415       .  A
C811        C820   1.407       .  A
C816        C817   1.405       .  A
C816        F821   1.356       .  S
C817        C818   1.413       .  A
C817        H822   1.079       .  S
C818        C819   1.417       .  A
C819        C820   1.399       .  A
C819        F823   1.357       .  S
C820        H824   1.081       .  S
C825        C826   1.396       .  A
C825        C830   1.392       .  A
C825        H835   1.084       .  S
C826        C831   1.479       .  S
C826        C827   1.404       .  A
C827        C828   1.405       .  A
C827        F832   1.357       .  S
C828        C829   1.416       .  A
C828        H833   1.083       .  S
C829        C830   1.426       .  A
C830        F834   1.357       .  S
C831        C836   1.408       .  A
C831        C840   1.402       .  A
C836        C837   1.405       .  A
C836        F841   1.357       .  S
C837        C838   1.404       .  A
C837        H842   1.083       .  S
C838        C839   1.406       .  A
C839        C840   1.395       .  A
C839        F843   1.358       .  S
C840        H844   1.084       .  S
C845        C846   1.403       .  A
C845        C850   1.407       .  A
C845        H855   1.083       .  S
C846        C851   1.477       .  S
C846        C847   1.402       .  A
C847        C848   1.393       .  A
C847        F852   1.358       .  S
C848        C849   1.406       .  A
C848        H853   1.083       .  S
C849        C850   1.411       .  A
C850        F854   1.357       .  S
C851        C856   1.402       .  A
C851        C860   1.399       .  A
C856        C857   1.401       .  A
C856        F861   1.357       .  S
C857        C858   1.415       .  A
C857        H862   1.083       .  S
C858        C859   1.420       .  A
C859        C860   1.399       .  A
C859        F863   1.357       .  S
C860        H864   1.083       .  S
C865        C866   1.402       .  A
C865        C870   1.407       .  A
C865        H875   1.080       .  S
C866        C871   1.486       .  S
C866        C867   1.398       .  A
C867        C868   1.396       .  A
C867        F872   1.358       .  S
C868        C869   1.422       .  A
C868        H873   1.071       .  S
C869        C870   1.422       .  A
C870        F874   1.357       .  S
C871        C876   1.405       .  A
C871        C880   1.404       .  A
C876        C877   1.398       .  A
C876        F881   1.358       .  S
C877        C878   1.407       .  A
C877        H882   1.083       .  S
C878        C879   1.412       .  A
C879        C880   1.405       .  A
C879        F883   1.357       .  S
C880        H884   1.083       .  S
C885        C886   1.403       .  A
C885        C890   1.408       .  A
C885        H895   1.083       .  S
C886        C891   1.479       .  S
C886        C887   1.398       .  A
C887        C888   1.393       .  A
C887        F892   1.358       .  S
C888        C889   1.417       .  A
C888        H893   1.080       .  S
C889        C890   1.419       .  A
C890        F894   1.357       .  S
C891        C896   1.403       .  A
C891        C900   1.403       .  A
C896        C897   1.395       .  A
C896        F901   1.358       .  S
C897        C898   1.407       .  A
C897        H902   1.083       .  S
C898        C899   1.412       .  A
C899        C900   1.407       .  A
C899        F903   1.357       .  S
C900        H904   1.083       .  S
C905        C906   1.402       .  A
C905        C910   1.394       .  A
C905        H915   1.084       .  S
C906        C911   1.473       .  S
C906        C907   1.403       .  A
C907        C908   1.402       .  A
C907        F912   1.357       .  S
C908        C909   1.407       .  A
C908        H913   1.083       .  S
C909        C910   1.406       .  A
C910        F914   1.358       .  S
C911        C916   1.402       .  A
C911        C920   1.398       .  A
C916        C917   1.401       .  A
C916        F921   1.357       .  S
C917        C918   1.416       .  A
C917        H922   1.083       .  S
C918        C919   1.419       .  A
C919        C920   1.396       .  A
C919        F923   1.356       .  S
C920        H924   1.084       .  S
C925        C926   1.401       .  A
C925        C930   1.392       .  A
C925        H935   1.084       .  S
C926        C931   1.486       .  S
C926        C927   1.407       .  A
C927        C928   1.407       .  A
C927        F932   1.357       .  S
C928        C929   1.409       .  A
C928        H933   1.083       .  S
C929        C930   1.411       .  A
C930        F934   1.358       .  S
C931        C936   1.401       .  A
C931        C940   1.401       .  A
C936        C937   1.393       .  A
C936        F941   1.358       .  S
C937        C938   1.418       .  A
C937        H942   1.077       .  S
C938        C939   1.422       .  A
C939        C940   1.405       .  A
C939        F943   1.357       .  S
C940        H944   1.083       .  S
C945        C946   1.398       .  A
C945        C950   1.389       .  A
C945        H955   1.084       .  S
C946        C951   1.489       .  S
C946        C947   1.408       .  A
C947        C948   1.409       .  A
C947        F952   1.357       .  S
C948        C949   1.416       .  A
C948        H953   1.080       .  S
C949        C950   1.420       .  A
C950        F954   1.357       .  S
C951        C956   1.409       .  A
C951        C960   1.407       .  A
C956        C957   1.405       .  A
C956        F961   1.357       .  S
C957        C958   1.405       .  A
C957        H962   1.083       .  S
C958        C959   1.403       .  A
C959        C960   1.395       .  A
C959        F963   1.358       .  S
C960        H964   1.083       .  S
C965        C966   1.406       .  A
C965        C970   1.404       .  A
C965        H975   1.083       .  S
C966        C971   1.480       .  S
C966        C967   1.404       .  A
C967        C968   1.396       .  A
C967        F972   1.358       .  S
C968        C969   1.404       .  A
C968        H973   1.084       .  S
C969        C970   1.406       .  A
C970        F974   1.357       .  S
C971        C976   1.399       .  A
C971        C980   1.400       .  A
C976        C977   1.396       .  A
C976        F981   1.358       .  S
C977        C978   1.419       .  A
C977        H982   1.076       .  S
C978        C979   1.422       .  A
C979        C980   1.401       .  A
C979        F983   1.357       .  S
C980        H984   1.083       .  S
C985        C986   1.404       .  A
C985        C990   1.398       .  A
C985        H995   1.084       .  S
C986        C991   1.485       .  S
C986        C987   1.406       .  A
C987        C988   1.405       .  A
C987        F992   1.357       .  S
C988        C989   1.407       .  A
C988        H993   1.083       .  S
C989        C990   1.407       .  A
C990        F994   1.358       .  S
C991        C996   1.404       .  A
C991       C1000   1.403       .  A
C996        C997   1.399       .  A
C996       F1001   1.358       .  S
C997        C998   1.415       .  A
C997       H1002   1.081       .  S
C998        C999   1.417       .  A
C999       C1000   1.403       .  A
C999       F1003   1.357       .  S
C1000      H1004   1.083       .  S
C1005      C1006   1.407       .  A
C1005      C1010   1.408       .  A
C1005      H1015   1.083       .  S
C1006      C1011   1.487       .  S
C1006      C1007   1.406       .  A
C1007      C1008   1.394       .  A
C1007      F1012   1.358       .  S
C1008      C1009   1.404       .  A
C1008      H1013   1.084       .  S
C1009      C1010   1.409       .  A
C1010      F1014   1.357       .  S
C1011      C1016   1.405       .  A
C1011      C1020   1.397       .  A
C1016      C1017   1.409       .  A
C1016      F1021   1.357       .  S
C1017      C1018   1.418       .  A
C1017      H1022   1.080       .  S
C1018      C1019   1.422       .  A
C1019      C1020   1.390       .  A
C1019      F1023   1.355       .  S
C1020      H1024   1.084       .  S
C1025      C1026   1.407       .  A
C1025      C1030   1.407       .  A
C1025      H1035   1.083       .  S
C1026      C1031   1.483       .  S
C1026      C1027   1.405       .  A
C1027      C1028   1.394       .  A
C1027      F1032   1.358       .  S
C1028      C1029   1.403       .  A
C1028      H1033   1.084       .  S
C1029      C1030   1.406       .  A
C1030      F1034   1.357       .  S
C1031      C1036   1.403       .  A
C1031      C1040   1.397       .  A
C1036      C1037   1.408       .  A
C1036      F1041   1.357       .  S
C1037      C1038   1.419       .  A
C1037      H1042   1.080       .  S
C1038      C1039   1.421       .  A
C1039      C1040   1.390       .  A
C1039      F1043   1.357       .  S
C1040      H1044   1.084       .  S
C1045      C1046   1.408       .  A
C1045      C1050   1.407       .  A
C1045      H1055   1.083       .  S
C1046      C1051   1.488       .  S
C1046      C1047   1.408       .  A
C1047      C1048   1.394       .  A
C1047      F1052   1.358       .  S
C1048      C1049   1.401       .  A
C1048      H1053   1.084       .  S
C1049      C1050   1.406       .  A
C1050      F1054   1.357       .  S
C1051      C1056   1.401       .  A
C1051      C1060   1.405       .  A
C1056      C1057   1.389       .  A
C1056      F1061   1.358       .  S
C1057      C1058   1.417       .  A
C1057      H1062   1.083       .  S
C1058      C1059   1.421       .  A
C1059      C1060   1.408       .  A
C1059      F1063   1.354       .  S
C1060      H1064   1.083       .  S
C1065      C1066   1.401       .  A
C1065      C1070   1.395       .  A
C1065      H1075   1.084       .  S
C1066      C1071   1.480       .  S
C1066      C1067   1.404       .  A
C1067      C1068   1.405       .  A
C1067      F1072   1.357       .  S
C1068      C1069   1.410       .  A
C1068      H1073   1.083       .  S
C1069      C1070   1.411       .  A
C1070      F1074   1.358       .  S
C1071      C1076   1.398       .  A
C1071      C1080   1.400       .  A
C1076      C1077   1.395       .  A
C1076      F1081   1.358       .  S
C1077      C1078   1.419       .  A
C1077      H1082   1.076       .  S
C1078      C1079   1.421       .  A
C1079      C1080   1.404       .  A
C1079      F1083   1.357       .  S
C1080      H1084   1.083       .  S
C1085      C1086   1.405       .  A
C1085      C1090   1.406       .  A
C1085      H1095   1.083       .  S
C1086      C1091   1.480       .  S
C1086      C1087   1.403       .  A
C1087      C1088   1.393       .  A
C1087      F1092   1.358       .  S
C1088      C1089   1.406       .  A
C1088      H1093   1.083       .  S
C1089      C1090   1.410       .  A
C1090      F1094   1.357       .  S
C1091      C1096   1.400       .  A
C1091      C1100   1.395       .  A
C1096      C1097   1.404       .  A
C1096      F1101   1.357       .  S
C1097      C1098   1.420       .  A
C1097      H1102   1.083       .  S
C1098      C1099   1.428       .  A
C1099      C1100   1.393       .  A
C1099      F1103   1.354       .  S
C1100      H1104   1.084       .  S
C1105      C1106   1.403       .  A
C1105      C1110   1.411       .  A
C1105      H1115   1.083       .  S
C1106      C1111   1.483       .  S
C1106      C1107   1.398       .  A
C1107      C1108   1.389       .  A
C1107      F1112   1.358       .  S
C1108      C1109   1.417       .  A
C1108      H1113   1.082       .  S
C1109      C1110   1.423       .  A
C1110      F1114   1.355       .  S
C1111      C1116   1.405       .  A
C1111      C1120   1.406       .  A
C1116      C1117   1.395       .  A
C1116      F1121   1.358       .  S
C1117      C1118   1.403       .  A
C1117      H1122   1.084       .  S
C1118      C1119   1.407       .  A
C1119      C1120   1.408       .  A
C1119      F1123   1.357       .  S
C1120      H1124   1.083       .  S
C1125      C1126   1.400       .  A
C1125      C1130   1.398       .  A
C1125      H1135   1.083       .  S
C1126      C1131   1.485       .  S
C1126      C1127   1.405       .  A
C1127      C1128   1.402       .  A
C1127      F1132   1.357       .  S
C1128      C1129   1.415       .  A
C1128      H1133   1.083       .  S
C1129      C1130   1.422       .  A
C1130      F1134   1.356       .  S
C1131      C1136   1.408       .  A
C1131      C1140   1.404       .  A
C1136      C1137   1.405       .  A
C1136      F1141   1.357       .  S
C1137      C1138   1.407       .  A
C1137      H1142   1.083       .  S
C1138      C1139   1.406       .  A
C1139      C1140   1.397       .  A
C1139      F1143   1.357       .  S
C1140      H1144   1.084       .  S
C1145      C1146   1.408       .  A
C1145      C1150   1.406       .  A
C1145      H1155   1.083       .  S
C1146      C1151   1.493       .  S
C1146      C1147   1.411       .  A
C1147      C1148   1.396       .  A
C1147      F1152   1.358       .  S
C1148      C1149   1.400       .  A
C1148      H1153   1.084       .  S
C1149      C1150   1.406       .  A
C1150      F1154   1.357       .  S
C1151      C1156   1.408       .  A
C1151      C1160   1.400       .  A
C1156      C1157   1.407       .  A
C1156      F1161   1.357       .  S
C1157      C1158   1.416       .  A
C1157      H1162   1.080       .  S
C1158      C1159   1.421       .  A
C1159      C1160   1.391       .  A
C1159      F1163   1.357       .  S
C1160      H1164   1.083       .  S
C1165      C1166   1.403       .  A
C1165      C1170   1.394       .  A
C1165      H1175   1.084       .  S
C1166      C1171   1.479       .  S
C1166      C1167   1.407       .  A
C1167      C1168   1.403       .  A
C1167      F1172   1.357       .  S
C1168      C1169   1.405       .  A
C1168      H1173   1.083       .  S
C1169      C1170   1.403       .  A
C1170      F1174   1.358       .  S
C1171      C1176   1.401       .  A
C1171      C1180   1.404       .  A
C1176      C1177   1.394       .  A
C1176      F1181   1.358       .  S
C1177      C1178   1.416       .  A
C1177      H1182   1.081       .  S
C1178      C1179   1.417       .  A
C1179      C1180   1.402       .  A
C1179      F1183   1.357       .  S
C1180      H1184   1.083       .  S
C1185      C1186   1.403       .  A
C1185      C1190   1.400       .  A
C1185      H1195   1.083       .  S
C1186      C1191   1.488       .  S
C1186      C1187   1.409       .  A
C1187      C1188   1.405       .  A
C1187      F1192   1.357       .  S
C1188      C1189   1.404       .  A
C1188      H1193   1.083       .  S
C1189      C1190   1.408       .  A
C1190      F1194   1.358       .  S
C1191      C1196   1.402       .  A
C1191      C1200   1.396       .  A
C1196      C1197   1.402       .  A
C1196      F1201   1.357       .  S
C1197      C1198   1.421       .  A
C1197      H1202   1.083       .  S
C1198      C1199   1.430       .  A
C1199      C1200   1.399       .  A
C1199      F1203   1.352       .  S
C1200      H1204   1.084       .  S
C1205      C1206   1.404       .  A
C1205      C1210   1.397       .  A
C1205      H1215   1.084       .  S
C1206      C1211   1.481       .  S
C1206      C1207   1.403       .  A
C1207      C1208   1.401       .  A
C1207      F1212   1.357       .  S
C1208      C1209   1.409       .  A
C1208      H1213   1.083       .  S
C1209      C1210   1.409       .  A
C1210      F1214   1.357       .  S
C1211      C1216   1.397       .  A
C1211      C1220   1.402       .  A
C1216      C1217   1.391       .  A
C1216      F1221   1.358       .  S
C1217      C1218   1.420       .  A
C1217      H1222   1.077       .  S
C1218      C1219   1.421       .  A
C1219      C1220   1.405       .  A
C1219      F1223   1.357       .  S
C1220      H1224   1.083       .  S
C1225      C1226   1.406       .  A
C1225      C1230   1.408       .  A
C1225      H1235   1.083       .  S
C1226      C1231   1.481       .  S
C1226      C1227   1.404       .  A
C1227      C1228   1.394       .  A
C1227      F1232   1.358       .  S
C1228      C1229   1.403       .  A
C1228      H1233   1.084       .  S
C1229      C1230   1.409       .  A
C1230      F1234   1.357       .  S
C1231      C1236   1.404       .  A
C1231      C1240   1.399       .  A
C1236      C1237   1.402       .  A
C1236      F1241   1.357       .  S
C1237      C1238   1.414       .  A
C1237      H1242   1.082       .  S
C1238      C1239   1.421       .  A
C1239      C1240   1.399       .  A
C1239      F1243   1.357       .  S
C1240      H1244   1.083       .  S
C1245      C1246   1.402       .  A
C1245      C1250   1.394       .  A
C1245      H1255   1.084       .  S
C1246      C1251   1.478       .  S
C1246      C1247   1.406       .  A
C1247      C1248   1.405       .  A
C1247      F1252   1.357       .  S
C1248      C1249   1.406       .  A
C1248      H1253   1.083       .  S
C1249      C1250   1.405       .  A
C1250      F1254   1.358       .  S
C1251      C1256   1.402       .  A
C1251      C1260   1.394       .  A
C1256      C1257   1.408       .  A
C1256      F1261   1.357       .  S
C1257      C1258   1.420       .  A
C1257      H1262   1.080       .  S
C1258      C1259   1.422       .  A
C1259      C1260   1.390       .  A
C1259      F1263   1.355       .  S
C1260      H1264   1.084       .  S
C1265      C1266   1.403       .  A
C1265      C1270   1.396       .  A
C1265      H1275   1.084       .  S
C1266      C1271   1.483       .  S
C1266      C1267   1.404       .  A
C1267      C1268   1.403       .  A
C1267      F1272   1.357       .  S
C1268      C1269   1.409       .  A
C1268      H1273   1.083       .  S
C1269      C1270   1.410       .  A
C1270      F1274   1.358       .  S
C1271      C1276   1.402       .  A
C1271      C1280   1.395       .  A
C1276      C1277   1.404       .  A
C1276      F1281   1.357       .  S
C1277      C1278   1.418       .  A
C1277      H1282   1.083       .  S
C1278      C1279   1.429       .  A
C1279      C1280   1.393       .  A
C1279      F1283   1.353       .  S
C1280      H1284   1.084       .  S
C1285      C1286   1.405       .  A
C1285      C1290   1.395       .  A
C1285      H1295   1.084       .  S
C1286      C1291   1.483       .  S
C1286      C1287   1.407       .  A
C1287      C1288   1.404       .  A
C1287      F1292   1.357       .  S
C1288      C1289   1.404       .  A
C1288      H1293   1.083       .  S
C1289      C1290   1.402       .  A
C1290      F1294   1.358       .  S
C1291      C1296   1.400       .  A
C1291      C1300   1.404       .  A
C1296      C1297   1.389       .  A
C1296      F1301   1.358       .  S
C1297      C1298   1.417       .  A
C1297      H1302   1.083       .  S
C1298      C1299   1.420       .  A
C1299      C1300   1.407       .  A
C1299      F1303   1.355       .  S
C1300      H1304   1.083       .  S
