geometry optimzed in LAMMPS
_audit_creation_date              2020-12-01 
_audit_creation_method            'lammps2cif' 
_symmetry_space_group_name_H-M    'P1' 
_symmetry_Int_Tables_number       1 
_symmetry_cell_setting            triclinic 
loop_ 
_symmetry_equiv_pos_as_xyz 
  x,y,z 
_cell_length_a                    33.95493579 
_cell_length_b                    35.92672720044695 
_cell_length_c                    36.74684658678853 
_cell_angle_alpha                 92.67636192789254 
_cell_angle_beta                  89.93922294089114 
_cell_angle_gamma                 90.06373865893131 
loop_ 
_atom_site_label 
_atom_site_type_symbol 
_atom_site_fract_x 
_atom_site_fract_y 
_atom_site_fract_z 
_atom_site_charge 
C1          C  0.20004849  0.20459560  0.22196151     0.87000
C2          C  0.22965489  0.18310263  0.24447732    -0.53300
C3          C  0.25330918  0.20492243  0.26657445     0.09900
C4          C  0.24502288  0.24716610  0.26380166     0.20900
C5          C  0.17701461  0.22886657  0.25013395    -0.54000
C6          C  0.20020519  0.25183054  0.27193496     0.10000
C7          C  0.22482647  0.23221942  0.20131232    -0.53500
C8          C  0.24852837  0.25450898  0.22285516     0.10600
H9          H  0.23180132  0.15304133  0.24323528     0.15100
H10         H  0.26437364  0.26546178  0.28106917     0.00800
H11         H  0.14511408  0.22853246  0.25173934     0.15400
H12         H  0.22369067  0.23394846  0.17188267     0.15200
C13         C  0.10570817  0.45236109  0.42808367     0.30500
C14         C  0.10484087  0.51461832  0.47453530     0.30500
C15         C  0.13230249  0.48451479  0.41781569    -0.05700
C16         C  0.06486961  0.47175997  0.43319912    -0.06500
C17         C  0.11755368  0.44665981  0.46755406    -0.06400
C18         C  0.13153900  0.51616090  0.44100431    -0.05700
C19         C  0.06435007  0.50381123  0.45722475    -0.06500
C20         C  0.11683183  0.47791507  0.49110159    -0.06400
C21         C  0.14493111  0.54524054  0.42111268    -0.31700
N22         N  0.15559777  0.53161724  0.38757706     0.14800
C23         C  0.14740160  0.49478318  0.38498535    -0.31700
H24         H  0.14824561  0.47771655  0.35992000     0.16700
C25         C  0.02511545  0.51296053  0.46312522    -0.30700
N26         N  0.00209151  0.48824121  0.44338294     0.13500
C27         C  0.02604200  0.46301929  0.42537955    -0.30700
C28         C  0.12875315  0.46682140  0.52476966    -0.31000
N29         N  0.13728396  0.42991620  0.52178869     0.14000
H30         H  0.13193696  0.48437666  0.54933948     0.16600
C31         C  0.13070384  0.41733941  0.48698668    -0.31000
H32         H  0.13508234  0.38893397  0.47666260     0.16600
H33         H  0.01595507  0.43873558  0.40962109     0.16600
H34         H  0.14410841  0.57453218  0.42946136     0.16700
H35         H  0.01420226  0.53485489  0.48162101     0.16600
C36         C  0.19428181  0.77451821  0.66573473     0.87000
C37         C  0.22166969  0.79625967  0.64125765    -0.53300
C38         C  0.24753868  0.77459558  0.62130279     0.09900
C39         C  0.24279975  0.73227593  0.62742922     0.20900
C40         C  0.17343333  0.74637480  0.63963672    -0.54000
C41         C  0.19847597  0.72376565  0.61952230     0.10000
C42         C  0.22154329  0.75102487  0.68869273    -0.53500
C43         C  0.24714956  0.72880216  0.66906905     0.10600
H44         H  0.22121920  0.82641506  0.64057846     0.15100
H45         H  0.26342994  0.71420619  0.61127881     0.00800
H46         H  0.14163656  0.74396714  0.63808952     0.15400
H47         H  0.22059228  0.75208442  0.71827590     0.15200
C48         C  0.45788940  0.10292709  0.40898531     0.30500
C49         C  0.52181319  0.09639704  0.45326557     0.30500
C50         C  0.45781880  0.12718466  0.44439218    -0.05700
C51         C  0.46438570  0.06309729  0.42373657    -0.06500
C52         C  0.49836465  0.11166008  0.39206011    -0.06400
C53         C  0.49067943  0.12448053  0.46650359    -0.05700
C54         C  0.49751371  0.06045584  0.44665683    -0.06500
C55         C  0.53073115  0.10775619  0.41442935    -0.06400
C56         C  0.47978376  0.13687901  0.50112788    -0.31700
N57         N  0.44143335  0.14675867  0.50061596     0.14800
C58         C  0.42737508  0.13983184  0.46655425    -0.31700
H59         H  0.39666693  0.14145348  0.45891220     0.16700
C60         C  0.50062052  0.02417742  0.45655598    -0.30700
N61         N  0.47044107  0.00426030  0.44139975     0.13500
C62         C  0.44834040  0.02724348  0.42086615    -0.30700
C63         C  0.56311254  0.12107292  0.39636169    -0.31000
N64         N  0.55118445  0.13436096  0.36419584     0.14000
H65         H  0.59276325  0.12344508  0.40696580     0.16600
C66         C  0.51169422  0.12869774  0.36120181    -0.31000
H67         H  0.49373376  0.13785196  0.33902725     0.16600
H68         H  0.42377363  0.01819460  0.40395997     0.16600
H69         H  0.49723530  0.13509057  0.52562425     0.16700
H70         H  0.52423872  0.01234952  0.47196902     0.16600
C71         C  0.76293532  0.26711742  0.16126780     0.87000
C72         C  0.78655473  0.29612353  0.18439330    -0.53300
C73         C  0.76357405  0.31925495  0.20609848     0.09900
C74         C  0.71867751  0.31165141  0.20147708     0.20900
C75         C  0.73743496  0.24728638  0.18887180    -0.54000
C76         C  0.71391257  0.27018267  0.20981722     0.10000
C77         C  0.73424087  0.28989933  0.13924931    -0.53500
C78         C  0.71089752  0.31342949  0.15992173     0.10600
H79         H  0.81843727  0.29671074  0.18557190     0.15100
H80         H  0.69975865  0.33041359  0.21870029     0.00800
H81         H  0.73787560  0.21727965  0.19148347     0.15400
H82         H  0.73217902  0.28683898  0.10978877     0.15200
C83         C  0.23417315  0.23019450  0.74459535     0.87000
C84         C  0.21257968  0.25927839  0.72220121    -0.53300
C85         C  0.23724148  0.28057853  0.70266795     0.09900
C86         C  0.28091046  0.27194889  0.70782229     0.20900
C87         C  0.25979681  0.20840847  0.71656574    -0.54000
C88         C  0.28438604  0.23032835  0.69758636     0.10000
C89         C  0.26325900  0.25316783  0.76864004    -0.53500
C90         C  0.28712119  0.27576566  0.74931167     0.10600
H91         H  0.18091555  0.26170131  0.71981686     0.15100
H92         H  0.30073014  0.28956728  0.69175876     0.00800
H93         H  0.25813680  0.17838544  0.71169519     0.15400
H94         H  0.26236429  0.25407749  0.79820935     0.15200
C95         C  0.85496114  0.50226262  0.47633382     0.30500
C96         C  0.85856225  0.45330867  0.41667907     0.30500
C97         C  0.83098967  0.51273226  0.44296818    -0.05700
C98         C  0.89704160  0.49571456  0.45973547    -0.06500
C99         C  0.84157534  0.46229611  0.48213510    -0.06400
C100        C  0.83329291  0.48812764  0.41267501    -0.05700
C101        C  0.89858849  0.47048247  0.42891298    -0.06500
C102        C  0.84391183  0.43750020  0.45235589    -0.06400
C103        C  0.82416524  0.50813598  0.38263118    -0.31700
N104        N  0.81429148  0.54323155  0.39400576     0.14800
C105        C  0.81904715  0.54661012  0.43060842    -0.31700
H106        H  0.81728399  0.57262230  0.44662017     0.16700
C107        C  0.93771019  0.46579131  0.41969814    -0.30700
N108        N  0.96018904  0.48710834  0.44332759     0.13500
C109        C  0.93578024  0.50544370  0.46776159    -0.30700
C110        C  0.83156375  0.40326883  0.46365799    -0.31000
N111        N  0.82072422  0.40727255  0.49914514     0.14000
H112        H  0.82999202  0.37750296  0.44724062     0.16600
C113        C  0.82666765  0.44316383  0.51074706    -0.31000
H114        H  0.82114521  0.45429068  0.53815359     0.16600
H115        H  0.94554536  0.52332827  0.49042591     0.16600
H116        H  0.82659298  0.49836391  0.35439908     0.16700
H117        H  0.94894035  0.44750370  0.39792653     0.16600
C118        C  0.73668291  0.77999150  0.19647475     0.87000
C119        C  0.71878053  0.80677031  0.22592700    -0.53300
C120        C  0.69516826  0.78943676  0.24998786     0.09900
C121        C  0.69180009  0.74707684  0.24255083     0.20900
C122        C  0.75776008  0.74963256  0.21770830    -0.54000
C123        C  0.73416165  0.73245948  0.24178727     0.10000
C124        C  0.70105651  0.75998925  0.17865873    -0.53500
C125        C  0.67786563  0.74238075  0.20292891     0.10600
H126        H  0.72426745  0.83658917  0.22756710     0.15100
H127        H  0.67221142  0.73294422  0.26179050     0.00800
H128        H  0.78849615  0.74222002  0.21455205     0.15400
H129        H  0.69611897  0.75796058  0.14943465     0.15200
C130        C  0.72980691  0.17754605  0.69719409     0.87000
C131        C  0.70133307  0.15449523  0.67233338    -0.53300
C132        C  0.67757409  0.17596114  0.65185393     0.09900
C133        C  0.68338675  0.21806262  0.65899461     0.20900
C134        C  0.75161604  0.20287710  0.67115596    -0.54000
C135        C  0.72717131  0.22446987  0.65172574     0.10000
C136        C  0.70320993  0.20412377  0.72033142    -0.53500
C137        C  0.67863809  0.22502520  0.70013076     0.10600
H138        H  0.70199289  0.12437270  0.66882668     0.15100
H139        H  0.66381465  0.23565986  0.64277005     0.00800
H140        H  0.78349348  0.20460192  0.66929063     0.15400
H141        H  0.70403160  0.20640413  0.74989583     0.15200
C142        C  0.45769212  0.87015864  0.48140353     0.30500
C143        C  0.52040026  0.87213795  0.43467574     0.30500
C144        C  0.45758772  0.84134741  0.44930564    -0.05700
C145        C  0.46277066  0.90746400  0.46149521    -0.06500
C146        C  0.49865286  0.86478268  0.49837004    -0.06400
C147        C  0.48967937  0.84187868  0.42583967    -0.05700
C148        C  0.49509478  0.90789295  0.43728278    -0.06500
C149        C  0.53041469  0.86645341  0.47481081    -0.06400
C150        C  0.47772694  0.82508734  0.39309624    -0.31700
N151        N  0.43974076  0.81430002  0.39625059     0.14800
C152        C  0.42686597  0.82509062  0.42992156    -0.31700
H153        H  0.39648494  0.82400076  0.43878065     0.16700
C154        C  0.49844915  0.94346758  0.42526425    -0.30700
N155        N  0.46922724  0.96485636  0.44030646     0.13500
C156        C  0.44774042  0.94361186  0.46306660    -0.30700
C157        C  0.56317882  0.85469509  0.49334018    -0.31000
N158        N  0.55193643  0.84448104  0.52685780     0.14000
H159        H  0.59242402  0.85054123  0.48219820     0.16600
C160        C  0.51265855  0.85060518  0.53032865    -0.31000
H161        H  0.49521829  0.84300655  0.55349630     0.16600
H162        H  0.42513977  0.95437143  0.48143628     0.16600
H163        H  0.49398316  0.82466995  0.36771567     0.16700
H164        H  0.52240496  0.95421067  0.40944856     0.16600
C165        C  0.22336762  0.73760327  0.15942693     0.87000
C166        C  0.20146882  0.70839553  0.18137557    -0.53300
C167        C  0.22578750  0.68434761  0.19820399     0.09900
C168        C  0.26967949  0.69128710  0.19116485     0.20900
C169        C  0.25142788  0.75641335  0.18721844    -0.54000
C170        C  0.27572824  0.73221863  0.20372247     0.10000
C171        C  0.25004931  0.71486539  0.13276610    -0.53500
C172        C  0.27389209  0.69018197  0.14943762     0.10600
H173        H  0.16981128  0.70757688  0.18489334     0.15100
H174        H  0.28959783  0.67200824  0.20504623     0.00800
H175        H  0.25129398  0.78616227  0.19406417     0.15400
H176        H  0.24853867  0.71665589  0.10338443     0.15200
C177        C  0.76439955  0.70866031  0.72392002     0.87000
C178        C  0.78766152  0.68091243  0.69903965    -0.53300
C179        C  0.76449978  0.65730136  0.67785700     0.09900
C180        C  0.71959470  0.66366197  0.68457857     0.20900
C181        C  0.73710374  0.72841501  0.69799055    -0.54000
C182        C  0.71354814  0.70528140  0.67728395     0.10000
C183        C  0.73753524  0.68458709  0.74648664    -0.53500
C184        C  0.71378505  0.66093153  0.72641813     0.10600
H185        H  0.81948820  0.68083001  0.69733934     0.15100
H186        H  0.70013462  0.64504176  0.66780711     0.00800
H187        H  0.73683311  0.75848953  0.69586777     0.15400
H188        H  0.73670996  0.68706560  0.77603798     0.15200
C189        C  0.50569157  0.45837929  0.06083631     0.30500
C190        C  0.43924607  0.50093828  0.05579069     0.30500
C191        C  0.50386899  0.49395317  0.08554652    -0.05700
C192        C  0.49765454  0.47391183  0.02219246    -0.06500
C193        C  0.46655141  0.43903608  0.06954208    -0.06400
C194        C  0.47034485  0.51550888  0.08289155    -0.05700
C195        C  0.46335533  0.49593421  0.02037132    -0.06500
C196        C  0.43286488  0.46024757  0.06607897    -0.06400
C197        C  0.47841741  0.54984379  0.09964961    -0.31700
N198        N  0.51536453  0.54899855  0.11346513     0.14800
C199        C  0.53130488  0.51513630  0.10485134    -0.31700
H200        H  0.56165293  0.50760226  0.10967631     0.16700
C201        C  0.45892690  0.50621381  0.98502674    -0.30700
N202        N  0.48927419  0.49201373  0.96471182     0.13500
C203        C  0.51286481  0.47182782  0.98673629    -0.30700
C204        C  0.40159821  0.43882222  0.07701865    -0.31000
N205        N  0.41552500  0.40633875  0.08928910     0.14000
H206        H  0.37098725  0.44701419  0.07797433     0.16600
C207        C  0.45525880  0.40604005  0.08479327    -0.31000
H208        H  0.47461137  0.38415936  0.09327058     0.16600
H209        H  0.53779248  0.45534095  0.97729404     0.16600
H210        H  0.45968035  0.57421658  0.10006096     0.16700
H211        H  0.43426344  0.52125787  0.97429562     0.16600
C212        C  0.50589437  0.52085646  0.82883107     0.30500
C213        C  0.44108925  0.47625077  0.83444289     0.30500
C214        C  0.50628688  0.48405003  0.80587415    -0.05700
C215        C  0.49770565  0.50687462  0.86803930    -0.06500
C216        C  0.46589991  0.53826401  0.81859013    -0.06400
C217        C  0.47322183  0.46161183  0.80816762    -0.05700
C218        C  0.46413304  0.48390232  0.87020060    -0.06500
C219        C  0.43305394  0.51587518  0.82205725    -0.06400
C220        C  0.48387463  0.42627003  0.79501431    -0.31700
N221        N  0.52232440  0.42683707  0.78506145     0.14800
C222        C  0.53651174  0.46160081  0.79258946    -0.31700
H223        H  0.56721589  0.46945758  0.79076849     0.16700
C224        C  0.45948491  0.47475005  0.90590538    -0.30700
N225        N  0.48915740  0.49038847  0.92604837     0.13500
C226        C  0.51247908  0.51047830  0.90361877    -0.30700
C227        C  0.40092939  0.53570349  0.81004352    -0.31000
N228        N  0.41359917  0.56869090  0.79762551     0.14000
H229        H  0.37067435  0.52626259  0.80891726     0.16600
C230        C  0.45323394  0.57058124  0.80273813    -0.31000
H231        H  0.47158861  0.59350950  0.79489478     0.16600
H232        H  0.53709452  0.52760043  0.91273002     0.16600
H233        H  0.46616751  0.40126362  0.79603117     0.16700
H234        H  0.43532910  0.45915177  0.91692287     0.16600
N235        N  0.02869682  0.05719207  0.98753853    -0.05600
N236        N  0.03357684  0.08297512  0.01396343    -0.57700
N237        N  0.05873276  0.02447170  0.90601841    -0.05300
N238        N  0.08613723  0.02966327  0.88126049    -0.59900
N239        N  0.03087812  0.04963465  0.90389386    -0.04900
N240        N  0.03850582  0.07222439  0.87754878    -0.57700
N241        N  0.05560808  0.03105352  0.98962926    -0.04600
N242        N  0.07920241  0.03832594  0.01757580    -0.60200
C243        C  0.06508046  0.07073053  0.03245472     0.96600
C244        C  0.07290829  0.05934009  0.86351053     0.96300
N245        N  0.03086070  0.91149101  0.90886332    -0.05800
N246        N  0.03635924  0.88678103  0.88152823    -0.58300
N247        N  0.05634259  0.94376552  0.99241219    -0.03900
N248        N  0.08220547  0.93864402  0.01851902    -0.59600
N249        N  0.02842870  0.91843634  0.99295531    -0.05800
N250        N  0.03449328  0.89574645  0.01959506    -0.58600
N251        N  0.05826535  0.93737884  0.90875676    -0.03600
N252        N  0.08301511  0.93089248  0.88151667    -0.59700
Mn253      Mn  0.05846795  0.98417661  0.94928717     1.18400
C254        C  0.06904508  0.89927709  0.86482892     0.98600
C255        C  0.06796285  0.90882189  0.03548368     0.99300
N256        N  0.93843666  0.04998090  0.90104499    -0.05900
N257        N  0.93301642  0.07149397  0.87329120    -0.62200
N258        N  0.90789777  0.03348313  0.98488735    -0.04700
N259        N  0.88087354  0.04442321  0.00911233    -0.62800
N260        N  0.93659559  0.05807793  0.98446926    -0.05400
N261        N  0.93025695  0.08569326  0.00854183    -0.62400
N262        N  0.91126115  0.02385179  0.90118538    -0.04300
N263        N  0.88714255  0.02670647  0.87330539    -0.63100
Mn264      Mn  0.98369203  0.05475631  0.94415632     1.10700
C265        C  0.90117973  0.05638489  0.85605288     0.99900
C266        C  0.89566256  0.07682653  0.02388670     0.99900
N267        N  0.93570826  0.91917551  0.99084904    -0.05400
N268        N  0.92780709  0.89680056  0.01741869    -0.60700
N269        N  0.91041711  0.93639050  0.90589106    -0.04700
N270        N  0.88497859  0.92634645  0.88003240    -0.57500
N271        N  0.93870845  0.91153081  0.90738569    -0.06000
N272        N  0.93356516  0.88452842  0.88235799    -0.60300
N273        N  0.90837525  0.94502032  0.98911377    -0.05000
N274        N  0.88130750  0.94064903  0.01432109    -0.57500
Mn275      Mn  0.98343557  0.91404174  0.95013210     1.20200
Mn276      Mn  0.90809534  0.98469659  0.94534001     1.10100
Cl277      Cl  0.98330263  0.98440537  0.94736319    -0.85500
C278        C  0.89395800  0.91069958  0.03189924     0.96900
C279        C  0.90015286  0.89415212  0.86538938     0.96700
C280        C  0.79908163  0.78498412  0.78243095     0.20800
C281        C  0.79547286  0.81835112  0.80358551    -0.39000
C282        C  0.83097571  0.83463890  0.81551750     0.19800
C283        C  0.86713790  0.81842493  0.80755498     0.22500
C284        C  0.87070782  0.78514593  0.78631944    -0.39500
C285        C  0.83526296  0.76926792  0.77379813     0.21300
N286        N  0.76995747  0.76476275  0.76682838    -0.32800
C287        C  0.78759822  0.73636803  0.74738777    -0.10400
C288        C  0.82847566  0.73809942  0.75138461    -0.29200
N289        N  0.89633906  0.83850017  0.82324373    -0.45800
C290        C  0.87871680  0.86782825  0.84107884    -0.05100
C291        C  0.83796413  0.86663840  0.83672882    -0.22400
H292        H  0.76715874  0.83082093  0.81003419     0.19400
H293        H  0.89901565  0.77270696  0.77979822     0.18200
H294        H  0.85048951  0.71965910  0.73928512     0.14400
H295        H  0.81636004  0.88558216  0.84883959     0.14300
H296        H  0.73982881  0.77050593  0.76837951     0.32500
H297        H  0.92637137  0.83220382  0.82258269     0.35200
C298        C  0.63022293  0.60647677  0.75196908     0.20800
C299        C  0.59376828  0.58910596  0.74676005    -0.39000
C300        C  0.57723293  0.57357326  0.77743975     0.19800
C301        C  0.59499508  0.57484099  0.81131235     0.22500
C302        C  0.63198564  0.59240095  0.81662121    -0.39500
C303        C  0.64877816  0.60822596  0.78552312     0.21300
N304        N  0.65132819  0.62379057  0.72679517    -0.32800
C305        C  0.68388533  0.63719280  0.74405485    -0.10400
C306        C  0.68337720  0.62792087  0.78084941    -0.29200
N307        N  0.57228910  0.55723466  0.83576343    -0.45800
C308        C  0.54002919  0.54497209  0.81671693    -0.05100
C309        C  0.54274460  0.55465836  0.78043532    -0.22400
H310        H  0.57917461  0.58778451  0.72055428     0.19400
H311        H  0.64650800  0.59380040  0.84285181     0.18200
H312        H  0.70507817  0.63501373  0.80157532     0.14400
H313        H  0.52212756  0.54785818  0.75865975     0.14300
H314        H  0.64326821  0.62725060  0.69974786     0.32500
H315        H  0.57870143  0.55322631  0.86307132     0.35200
C316        C  0.10789767  0.84124494  0.09280704     0.20800
C317        C  0.10842588  0.80754349  0.11050357    -0.39000
C318        C  0.14555304  0.79554916  0.12162591     0.19800
C319        C  0.17960248  0.81545324  0.11551699     0.22500
C320        C  0.17904989  0.84952765  0.09829599    -0.39500
C321        C  0.14183826  0.86162274  0.08719158     0.21300
N322        N  0.07689307  0.85672414  0.07672498    -0.32800
C323        C  0.09114400  0.88710859  0.06064666    -0.10400
C324        C  0.13142236  0.89145736  0.06698748    -0.29200
N325        N  0.21124620  0.79706709  0.12723237    -0.45800
C326        C  0.19725641  0.76544234  0.14144540    -0.05100
C327        C  0.15624512  0.76361069  0.13824277    -0.22400
H328        H  0.08201247  0.79129173  0.11436329     0.19400
H329        H  0.20571506  0.86488041  0.09293216     0.18200
H330        H  0.15088857  0.91206462  0.05608636     0.14400
H331        H  0.13654197  0.74182100  0.14627731     0.14300
H332        H  0.04821269  0.84621219  0.07519513     0.32500
H333        H  0.24060618  0.80563260  0.12597456     0.35200
C334        C  0.32221691  0.60688660  0.11741575     0.20800
C335        C  0.33307262  0.56960196  0.11888186    -0.39000
C336        C  0.35768048  0.55605221  0.09091552     0.19800
C337        C  0.37154775  0.57781560  0.06370849     0.22500
C338        C  0.36046946  0.61559664  0.06213713    -0.39500
C339        C  0.33475670  0.62916921  0.08995000     0.21300
N340        N  0.29984880  0.62605289  0.14165698    -0.32800
C341        C  0.29718144  0.66093967  0.12969370    -0.10400
C342        C  0.31844051  0.66413353  0.09728509    -0.29200
N343        N  0.39931155  0.55910704  0.04381263    -0.45800
C344        C  0.40263450  0.52503570  0.05833253    -0.05100
C345        C  0.37710760  0.52293526  0.08803564    -0.22400
H346        H  0.32399167  0.55259615  0.14096982     0.19400
H347        H  0.37181866  0.63329801  0.04151780     0.18200
H348        H  0.32199106  0.68872719  0.08168662     0.14400
H349        H  0.37707933  0.50260604  0.10879402     0.14300
H350        H  0.28659693  0.61566483  0.16471390     0.32500
H351        H  0.41773165  0.57024484  0.02431291     0.35200
C352        C  0.59550123  0.78089142  0.58567790     0.20800
C353        C  0.59769038  0.74968875  0.60752100    -0.39000
C354        C  0.63558093  0.74043630  0.61984323     0.19800
C355        C  0.66845410  0.76095842  0.61099619     0.22500
C356        C  0.66635848  0.79170963  0.58891669    -0.39500
C357        C  0.62873716  0.80080099  0.57656307     0.21300
N358        N  0.56320109  0.79536950  0.57042329    -0.32800
C359        C  0.57628214  0.82430746  0.55118313    -0.10400
C360        C  0.61695692  0.82857009  0.55432772    -0.29200
N361        N  0.70037772  0.74893493  0.62834193    -0.45800
C362        C  0.68822652  0.72056738  0.64869418    -0.05100
C363        C  0.64794340  0.71392960  0.64371333    -0.22400
H364        H  0.57175295  0.73419512  0.61488534     0.19400
H365        H  0.69216120  0.80778905  0.58231135     0.18200
H366        H  0.63544506  0.84868344  0.54143040     0.14400
H367        H  0.62968619  0.69458434  0.65789998     0.14300
H368        H  0.53440476  0.78527526  0.57174556     0.32500
H369        H  0.72853211  0.76066210  0.62783292     0.35200
C370        C  0.36464511  0.79163237  0.33307363     0.20800
C371        C  0.32751497  0.79423567  0.31695163    -0.39000
C372        C  0.32206627  0.77241309  0.28485757     0.19800
C373        C  0.35101327  0.74903284  0.27024645     0.22500
C374        C  0.38845659  0.74673813  0.28617466    -0.39500
C375        C  0.39425191  0.76926408  0.31797934     0.21300
N376        N  0.37721363  0.81018230  0.36334997    -0.32800
C377        C  0.41526481  0.80002705  0.36718506    -0.10400
C378        C  0.42722423  0.77467585  0.33949218    -0.29200
N379        N  0.33814445  0.73113901  0.23956705    -0.45800
C380        C  0.30119314  0.74404638  0.23441799    -0.05100
C381        C  0.29012044  0.76970113  0.26207815    -0.22400
H382        H  0.30470460  0.81233003  0.32831081     0.19400
H383        H  0.41147648  0.72914260  0.27443850     0.18200
H384        H  0.45590120  0.76193767  0.33578883     0.14400
H385        H  0.26231541  0.78422525  0.26515361     0.14300
H386        H  0.36122714  0.82921659  0.37983895     0.32500
H387        H  0.35371890  0.71206351  0.22276232     0.35200
C388        C  0.80688225  0.14582975  0.75581331     0.20800
C389        C  0.83908966  0.14997354  0.77954486    -0.39000
C390        C  0.85308710  0.11707665  0.79397785     0.19800
C391        C  0.83600278  0.08271625  0.78566008     0.22500
C392        C  0.80427424  0.07849208  0.76129399    -0.39500
C393        C  0.79046203  0.11142485  0.74663928     0.21300
N394        N  0.78715378  0.17299962  0.73989941    -0.32800
C395        C  0.75818611  0.15599188  0.71989355    -0.10400
C396        C  0.75937956  0.11737617  0.72343111    -0.29200
N397        N  0.85214129  0.05638601  0.80572406    -0.45800
C398        C  0.87979503  0.07409429  0.82674797    -0.05100
C399        C  0.88168675  0.11186482  0.81983142    -0.22400
H400        H  0.85158609  0.17697594  0.78705078     0.19400
H401        H  0.79061540  0.05171795  0.75505704     0.18200
H402        H  0.73994823  0.09637951  0.71138595     0.14400
H403        H  0.89963331  0.13304504  0.83364633     0.14300
H404        H  0.79301501  0.20155508  0.74243182     0.32500
H405        H  0.84383641  0.02840262  0.80614621     0.35200
C406        C  0.63194104  0.30291998  0.74613832     0.20800
C407        C  0.62982317  0.33515698  0.76909538    -0.39000
C408        C  0.59477106  0.35560166  0.76731503     0.19800
C409        C  0.56380401  0.34449417  0.74477596     0.22500
C410        C  0.56635004  0.31273248  0.72104537    -0.39500
C411        C  0.60172405  0.29256475  0.72248268     0.21300
N412        N  0.66235753  0.27912319  0.74245578    -0.32800
C413        C  0.65181254  0.25383971  0.71575232    -0.10400
C414        C  0.61429683  0.26136918  0.70246040    -0.29200
N415        N  0.53336274  0.36833982  0.74884358    -0.45800
C416        C  0.54558004  0.39505386  0.77358291    -0.05100
C417        C  0.58370126  0.38827815  0.78560226    -0.22400
H418        H  0.65381464  0.34379476  0.78693800     0.19400
H419        H  0.54265620  0.30444268  0.70271264     0.18200
H420        H  0.59866636  0.24637026  0.68069386     0.14400
H421        H  0.60077696  0.40483410  0.80524213     0.14300
H422        H  0.68931012  0.28088551  0.75611075     0.32500
H423        H  0.50640503  0.36703227  0.73518245     0.35200
C424        C  0.78077935  0.83929757  0.13096328     0.20800
C425        C  0.78283975  0.86940609  0.10809094    -0.39000
C426        C  0.81911811  0.87419799  0.09063996     0.19800
C427        C  0.85075301  0.85058432  0.09528392     0.22500
C428        C  0.84870970  0.82060244  0.11824097    -0.39500
C429        C  0.81258866  0.81609973  0.13596679     0.21300
N430        N  0.74992533  0.82903697  0.15110750    -0.32800
C431        C  0.76231002  0.79939229  0.16955458    -0.10400
C432        C  0.80133356  0.79046304  0.16048443    -0.29200
N433        N  0.88171744  0.86078285  0.07527615    -0.45800
C434        C  0.86969971  0.89124195  0.05799631    -0.05100
C435        C  0.83092686  0.90052606  0.06691459    -0.22400
H436        H  0.75813299  0.88783217  0.10430447     0.19400
H437        H  0.87346542  0.80226907  0.12218511     0.18200
H438        H  0.81958655  0.76841483  0.17017029     0.14400
H439        H  0.81356004  0.92312282  0.05690805     0.14300
H440        H  0.72229576  0.84177182  0.15274450     0.32500
H441        H  0.90917905  0.84775414  0.07333089     0.35200
C442        C  0.61661699  0.66300122  0.18702141     0.20800
C443        C  0.60660092  0.62537309  0.18920734    -0.39000
C444        C  0.57765716  0.61217046  0.16482623     0.19800
C445        C  0.55937903  0.63491530  0.14051866     0.22500
C446        C  0.56997036  0.67254487  0.13786470    -0.39500
C447        C  0.59963112  0.68559268  0.16186011     0.21300
N448        N  0.64495365  0.68130043  0.20581071    -0.32800
C449        C  0.64693420  0.71548294  0.19198422    -0.10400
C450        C  0.61907143  0.71942665  0.16454083    -0.29200
N451        N  0.53335844  0.61527112  0.11978382    -0.45800
C452        C  0.53594831  0.57982525  0.13068853    -0.05100
C453        C  0.56323156  0.57667206  0.15857680    -0.22400
H454        H  0.62110192  0.60742198  0.20787628     0.19400
H455        H  0.55690320  0.69002435  0.11794037     0.18200
H456        H  0.61457992  0.74327466  0.14809684     0.14400
H457        H  0.57179696  0.55171057  0.17191879     0.14300
H458        H  0.66344902  0.67046417  0.22539941     0.32500
H459        H  0.51625286  0.62492153  0.09858880     0.35200
C460        C  0.64431001  0.81554186  0.33191768     0.20800
C461        C  0.62791982  0.80882547  0.36575171    -0.39000
C462        C  0.60186955  0.83586818  0.37960161     0.19800
C463        C  0.59222624  0.86739291  0.36139160     0.22500
C464        C  0.60866946  0.87411230  0.32701476    -0.39500
C465        C  0.63537163  0.84690775  0.31306529     0.21300
N466        N  0.66780667  0.79242620  0.31237292    -0.32800
C467        C  0.67426395  0.80877497  0.28056212    -0.10400
C468        C  0.65485776  0.84311491  0.27992115    -0.29200
N469        N  0.56364535  0.88678244  0.37953135    -0.45800
C470        C  0.55553075  0.86720557  0.40947885    -0.05100
C471        C  0.57869511  0.83521693  0.40980731    -0.22400
H472        H  0.63398522  0.78361613  0.37976347     0.19400
H473        H  0.60044158  0.89800593  0.31184709     0.18200
H474        H  0.65331576  0.86157076  0.25751893     0.14400
H475        H  0.57646178  0.81261440  0.42817615     0.14300
H476        H  0.67791247  0.76662169  0.31997546     0.32500
H477        H  0.54874397  0.90991802  0.37040861     0.35200
C478        C  0.84418691  0.56495782  0.55739485     0.20800
C479        C  0.85410598  0.59043788  0.58642039    -0.39000
C480        C  0.82255182  0.60286864  0.60912794     0.19800
C481        C  0.78432009  0.59067547  0.60343572     0.22500
C482        C  0.77451470  0.56539465  0.57473878    -0.39500
C483        C  0.80569047  0.55338047  0.55211427     0.21300
N484        N  0.86810280  0.54907666  0.53138463    -0.32800
C485        C  0.84419192  0.52736180  0.50955164    -0.10400
C486        C  0.80523164  0.52988649  0.52179774    -0.29200
N487        N  0.75935679  0.60739801  0.62750849    -0.45800
C488        C  0.78139516  0.63093217  0.64904597    -0.05100
C489        C  0.82119558  0.62859429  0.63840564    -0.22400
H490        H  0.88394928  0.60027959  0.59070958     0.19400
H491        H  0.74452508  0.55617535  0.56994579     0.18200
H492        H  0.77974857  0.51582461  0.50995531     0.14400
H493        H  0.84581518  0.64441621  0.64961526     0.14300
H494        H  0.89840852  0.55289073  0.52880173     0.32500
H495        H  0.72893352  0.60341949  0.62841957     0.35200
C496        C  0.77363482  0.28006763  0.58608674     0.20800
C497        C  0.79891562  0.28809781  0.55727582    -0.39000
C498        C  0.79738686  0.32474198  0.54580211     0.19800
C499        C  0.77308259  0.35153956  0.56231072     0.22500
C500        C  0.74730676  0.34334019  0.59069061    -0.39500
C501        C  0.74830177  0.30650887  0.60164886     0.21300
N502        N  0.76978914  0.24745045  0.60219491    -0.32800
C503        C  0.74128888  0.25311570  0.62763279    -0.10400
C504        C  0.72700300  0.28944271  0.62803853    -0.29200
N505        N  0.77831287  0.38462969  0.54745355    -0.45800
C506        C  0.80564405  0.37853086  0.52098764    -0.05100
C507        C  0.81813904  0.34158670  0.51883733    -0.22400
H508        H  0.81841547  0.26738197  0.54478991     0.19400
H509        H  0.72798883  0.36411131  0.60335765     0.18200
H510        H  0.70452514  0.30176197  0.64569247     0.14400
H511        H  0.84015161  0.32912675  0.50079005     0.14300
H512        H  0.78509702  0.22275985  0.59597294     0.32500
H513        H  0.76417273  0.40969371  0.55472315     0.35200
C514        C  0.79929230  0.60702541  0.32500559     0.20800
C515        C  0.80508633  0.62382937  0.29158438    -0.39000
C516        C  0.78020273  0.65404404  0.28500070     0.19800
C517        C  0.75148498  0.66600572  0.30957916     0.22500
C518        C  0.74600027  0.64955685  0.34301526    -0.39500
C519        C  0.77117407  0.61990179  0.34988122     0.21300
N520        N  0.81863523  0.57766463  0.33774804    -0.32800
C521        C  0.80291614  0.57253647  0.37109231    -0.10400
C522        C  0.77343799  0.59829521  0.37973508    -0.29200
N523        N  0.73139635  0.69485876  0.29707543    -0.45800
C524        C  0.74772037  0.70200899  0.26449752    -0.05100
C525        C  0.77829284  0.67702817  0.25593375    -0.22400
H526        H  0.82733255  0.61419463  0.27225071     0.19400
H527        H  0.72380358  0.65925803  0.36236203     0.18200
H528        H  0.75553716  0.60029574  0.40412778     0.14400
H529        H  0.79645777  0.67570297  0.23169023     0.14300
H530        H  0.84113823  0.56229009  0.32480517     0.32500
H531        H  0.70849946  0.70908328  0.31036610     0.35200
C532        C  0.18949427  0.15681662  0.79425396     0.20800
C533        C  0.18833204  0.12335187  0.81247559    -0.39000
C534        C  0.15055830  0.11008800  0.82045542     0.19800
C535        C  0.11669813  0.12894056  0.81126024     0.22500
C536        C  0.11789543  0.16216165  0.79290410    -0.39500
C537        C  0.15555215  0.17519925  0.78473249     0.21300
N538        N  0.22149865  0.17493600  0.78280501    -0.32800
C539        C  0.20778754  0.20472913  0.76528538    -0.10400
C540        C  0.16664755  0.20588833  0.76640843    -0.29200
N541        N  0.08459381  0.11198739  0.82380457    -0.45800
C542        C  0.09807285  0.08212422  0.84111719    -0.05100
C543        C  0.13900121  0.07967289  0.83929983    -0.22400
H544        H  0.21480224  0.10886341  0.82005557     0.19400
H545        H  0.09144590  0.17689714  0.78568775     0.18200
H546        H  0.14690013  0.22564574  0.75478043     0.14400
H547        H  0.15780563  0.05973887  0.85200486     0.14300
H548        H  0.25084860  0.16683674  0.78551146     0.32500
H549        H  0.05545430  0.12103937  0.82204620     0.35200
C550        C  0.34074504  0.34358497  0.80431970     0.20800
C551        C  0.36401746  0.35834055  0.83330428    -0.39000
C552        C  0.37511129  0.39599488  0.83109043     0.19800
C553        C  0.36350593  0.41689347  0.80235668     0.22500
C554        C  0.34084051  0.40215651  0.77345899    -0.39500
C555        C  0.33020717  0.36486729  0.77547757     0.21300
N556        N  0.32717806  0.30846720  0.79896610    -0.32800
C557        C  0.30862430  0.30778353  0.76620221    -0.10400
C558        C  0.31001054  0.34240442  0.75088494    -0.29200
N559        N  0.38180799  0.44978598  0.80341921    -0.45800
C560        C  0.40564938  0.45081270  0.83301260    -0.05100
C561        C  0.40226325  0.41734800  0.85100273    -0.22400
H562        H  0.37403548  0.34143017  0.85507256     0.19400
H563        H  0.33344215  0.41821766  0.75021666     0.18200
H564        H  0.29725864  0.35033644  0.72539606     0.14400
H565        H  0.42083618  0.40787352  0.87258813     0.14300
H566        H  0.33063811  0.28637839  0.81617686     0.32500
H567        H  0.38209657  0.46794154  0.78206472     0.35200
C568        C  0.86384086  0.15324716  0.08151234     0.20800
C569        C  0.86803280  0.18729841  0.10141935    -0.39000
C570        C  0.83288233  0.20430867  0.11316232     0.19800
C571        C  0.79645350  0.18868708  0.10530630     0.22500
C572        C  0.79224559  0.15442005  0.08575171    -0.39500
C573        C  0.82742137  0.13720998  0.07426421     0.21300
N574        N  0.89257559  0.13267855  0.06573748    -0.32800
C575        C  0.87447009  0.10328262  0.04839100    -0.10400
C576        C  0.83378698  0.10482484  0.05335667    -0.29200
N577        N  0.76766370  0.21008582  0.11979942    -0.45800
C578        C  0.78572139  0.23914304  0.13784511    -0.05100
C579        C  0.82658653  0.23672834  0.13391722    -0.22400
H580        H  0.89655429  0.19969743  0.10716880     0.19400
H581        H  0.76369213  0.14220500  0.07975744     0.18200
H582        H  0.81180551  0.08607479  0.04155281     0.14400
H583        H  0.84888745  0.25527868  0.14538992     0.14300
H584        H  0.92263362  0.13893026  0.06570321     0.32500
H585        H  0.73746353  0.20453691  0.11876125     0.35200
C586        C  0.64549688  0.36542825  0.10381259     0.20800
C587        C  0.63036732  0.38048819  0.07173826    -0.39000
C588        C  0.59500025  0.40096083  0.07586611     0.19800
C589        C  0.57672042  0.40538583  0.10940809     0.22500
C590        C  0.59172791  0.39059646  0.14110436    -0.39500
C591        C  0.62678095  0.37064781  0.13705865     0.21300
N592        N  0.67820285  0.34472188  0.10758357    -0.32800
C593        C  0.68015807  0.33697050  0.14353269    -0.10400
C594        C  0.64851494  0.35287649  0.16263544    -0.29200
N595        N  0.54396033  0.42549661  0.10695174    -0.45800
C596        C  0.54041593  0.43469735  0.07172199    -0.05100
C597        C  0.57197816  0.41982979  0.05111855    -0.22400
H598        H  0.64500329  0.37657757  0.04566715     0.19400
H599        H  0.57706578  0.39445024  0.16717898     0.18200
H600        H  0.64162900  0.35104978  0.19124415     0.14400
H601        H  0.57745911  0.42241824  0.02236436     0.14300
H602        H  0.69789063  0.33653743  0.08689317     0.32500
H603        H  0.52491749  0.43294266  0.12843702     0.35200
C604        C  0.84811427  0.40145184  0.32948928     0.20800
C605        C  0.85533402  0.38971410  0.29275604    -0.39000
C606        C  0.82293893  0.37327529  0.27359567     0.19800
C607        C  0.78635090  0.36978018  0.28969745     0.22500
C608        C  0.77942279  0.38096537  0.32595680    -0.39500
C609        C  0.81153447  0.39635085  0.34497916     0.21300
N610        N  0.87238815  0.42002036  0.35355060    -0.32800
C611        C  0.85065943  0.42601894  0.38449876    -0.10400
C612        C  0.81281847  0.41139693  0.37958156    -0.29200
N613        N  0.76052446  0.35274844  0.26688705    -0.45800
C614        C  0.78046316  0.34408262  0.23578603    -0.05100
C615        C  0.81962950  0.35675663  0.23878555    -0.22400
H616        H  0.88384308  0.39299966  0.28010499     0.19400
H617        H  0.75085052  0.37789758  0.33857822     0.18200
H618        H  0.78809244  0.41438435  0.39811757     0.14400
H619        H  0.84295117  0.35298866  0.21886935     0.14300
H620        H  0.90066425  0.42994209  0.34844027     0.32500
H621        H  0.73168201  0.34527887  0.27323556     0.35200
C622        C  0.59605290  0.13077104  0.51384631     0.20800
C623        C  0.61715598  0.16056921  0.52994410    -0.39000
C624        C  0.62927378  0.15610564  0.56569031     0.19800
C625        C  0.62122699  0.12434097  0.58425384     0.22500
C626        C  0.59898526  0.09475458  0.56835345    -0.39500
C627        C  0.58668492  0.09928442  0.53225873     0.21300
N628        N  0.57827603  0.13028870  0.48148623    -0.32800
C629        C  0.55663368  0.09855043  0.47867016    -0.10400
C630        C  0.56116835  0.07840136  0.51017071    -0.29200
N631        N  0.63696087  0.12708052  0.61790599    -0.45800
C632        C  0.65448449  0.16108830  0.62050540    -0.05100
C633        C  0.65012221  0.17991336  0.58854258    -0.22400
H634        H  0.62308018  0.18576139  0.51581805     0.19400
H635        H  0.59123407  0.07044511  0.58314693     0.18200
H636        H  0.54445520  0.05448171  0.51807921     0.14400
H637        H  0.66175412  0.20696291  0.58234756     0.14300
H638        H  0.57693900  0.15279183  0.46453792     0.32500
H639        H  0.63582597  0.10723149  0.63775957     0.35200
C640        C  0.35876332  0.20760886  0.63174325     0.20800
C641        C  0.39620223  0.20823029  0.61563582    -0.39000
C642        C  0.40038044  0.18643432  0.58322737     0.19800
C643        C  0.36936959  0.16619422  0.56772097     0.22500
C644        C  0.33217047  0.16511614  0.58412838    -0.39500
C645        C  0.32823878  0.18630647  0.61686623     0.21300
N646        N  0.34701580  0.22618233  0.66239684    -0.32800
C647        C  0.30912187  0.21583221  0.66738762    -0.10400
C648        C  0.29630511  0.19106412  0.63961660    -0.29200
N649        N  0.38029810  0.14917152  0.53605799    -0.45800
C650        C  0.41862290  0.15833237  0.53179389    -0.05100
C651        C  0.43245931  0.18121844  0.56063906    -0.22400
H652        H  0.42021884  0.22457099  0.62737104     0.19400
H653        H  0.30803796  0.14906834  0.57221500     0.18200
H654        H  0.26730898  0.17885770  0.63621105     0.14400
H655        H  0.46155682  0.19321185  0.56398161     0.14300
H656        H  0.36374484  0.24442944  0.67909597     0.32500
H657        H  0.36288760  0.13238171  0.51855628     0.35200
C658        C  0.66827732  0.21565226  0.27733239     0.20800
C659        C  0.66605227  0.18598867  0.30080335    -0.39000
C660        C  0.62842637  0.17767821  0.31393424     0.19800
C661        C  0.59524188  0.19723946  0.30423786     0.22500
C662        C  0.59757159  0.22741998  0.28102586    -0.39500
C663        C  0.63549956  0.23596270  0.26800711     0.21300
N664        N  0.70028219  0.22696605  0.25941048    -0.32800
C665        C  0.68833932  0.25488771  0.23842558    -0.10400
C666        C  0.64805283  0.26169529  0.24333644    -0.29200
N667        N  0.56284141  0.18324337  0.32002190    -0.45800
C668        C  0.57581067  0.15492100  0.34015194    -0.05100
C669        C  0.61652740  0.15068433  0.33708268    -0.22400
H670        H  0.69176557  0.17008556  0.30786964     0.19400
H671        H  0.57171048  0.24269452  0.27320319     0.18200
H672        H  0.62995565  0.28088009  0.22886532     0.14400
H673        H  0.63495385  0.13075849  0.35022248     0.14300
H674        H  0.72842254  0.21531495  0.26028408     0.32500
H675        H  0.53399997  0.19300832  0.31807755     0.35200
C676        C  0.09579944  0.84471650  0.78478510     0.20800
C677        C  0.09347648  0.81535467  0.75825281    -0.39000
C678        C  0.12355004  0.81420164  0.73195548     0.19800
C679        C  0.15358284  0.84024508  0.73221553     0.22500
C680        C  0.15594512  0.86953016  0.75871132    -0.39500
C681        C  0.12590032  0.87074433  0.78487890     0.21300
N682        N  0.07159894  0.85139944  0.81334108    -0.32800
C683        C  0.08646973  0.88191980  0.83158852    -0.10400
C684        C  0.12029825  0.89476377  0.81469004    -0.29200
N685        N  0.18051936  0.83107333  0.70664293    -0.45800
C686        C  0.16771438  0.79901898  0.68954286    -0.05100
C687        C  0.13221158  0.78758369  0.70486473    -0.22400
H688        H  0.07058720  0.79438758  0.75864914     0.19400
H689        H  0.18001057  0.88933796  0.75946100     0.18200
H690        H  0.13849743  0.91832569  0.82325391     0.14400
H691        H  0.11657786  0.76172011  0.69911705     0.14300
H692        H  0.04667580  0.83609861  0.82009401     0.32500
H693        H  0.20750521  0.84437916  0.70299241     0.35200
C694        C  0.29718681  0.66747778  0.72856902     0.20800
C695        C  0.30084644  0.64502617  0.75873026    -0.39000
C696        C  0.33765217  0.62802064  0.76325771     0.19800
C697        C  0.36890450  0.63355773  0.73989041     0.22500
C698        C  0.36506611  0.65581923  0.70934048    -0.39500
C699        C  0.32780873  0.67232671  0.70439823     0.21300
N700        N  0.26510955  0.68641329  0.71862729    -0.32800
C701        C  0.27467627  0.70331065  0.68753146    -0.10400
C702        C  0.31366906  0.69501532  0.67761326    -0.29200
N703        N  0.40071462  0.61399320  0.75011110    -0.45800
C704        C  0.38929037  0.59544259  0.77978817    -0.05100
C705        C  0.35011110  0.60340446  0.78872068    -0.22400
H706        H  0.27655153  0.64077762  0.77717627     0.19400
H707        H  0.38918159  0.65968969  0.69060827     0.18200
H708        H  0.32975628  0.70500004  0.65456891     0.14400
H709        H  0.33295164  0.59231366  0.81056497     0.14300
H710        H  0.23806502  0.68759591  0.73220606     0.32500
H711        H  0.42798404  0.61226182  0.73697541     0.35200
C712        C  0.33402399  0.79813227  0.57083271     0.20800
C713        C  0.37168577  0.79241127  0.55640069    -0.39000
C714        C  0.38848807  0.82274571  0.53958418     0.19800
C715        C  0.36968487  0.85659421  0.53668900     0.22500
C716        C  0.33171011  0.86251959  0.55159916    -0.39500
C717        C  0.31476125  0.83190063  0.56887645     0.21300
N718        N  0.31216687  0.77335091  0.58831850    -0.32800
C719        C  0.27852091  0.79122946  0.59826193    -0.10400
C720        C  0.27904505  0.82791070  0.58646503    -0.29200
N721        N  0.39189459  0.87994349  0.51703665    -0.45800
C722        C  0.42493778  0.86030453  0.50767522    -0.05100
C723        C  0.42342133  0.82480331  0.52160696    -0.22400
H724        H  0.38676314  0.76598243  0.55779543     0.19400
H725        H  0.31637928  0.88874269  0.54965627     0.18200
H726        H  0.25660419  0.84905063  0.59054527     0.14400
H727        H  0.44447236  0.80242383  0.51717568     0.14300
H728        H  0.32040783  0.74628122  0.59414821     0.32500
H729        H  0.38427227  0.90655668  0.50927203     0.35200
C730        C  0.18963850  0.34692307  0.64841804     0.20800
C731        C  0.16437717  0.37635055  0.64044331    -0.39000
C732        C  0.16302398  0.38539292  0.60372337     0.19800
C733        C  0.18454617  0.36599235  0.57696233     0.22500
C734        C  0.21010610  0.33694266  0.58500495    -0.39500
C735        C  0.21210264  0.32849504  0.62174994     0.21300
N736        N  0.19588443  0.33253471  0.68103056    -0.32800
C737        C  0.22304312  0.30536425  0.67492947    -0.10400
C738        C  0.23400228  0.30207978  0.63845716    -0.29200
N739        N  0.17763386  0.37937571  0.54410708    -0.45800
C740        C  0.15208379  0.40787514  0.55017073    -0.05100
C741        C  0.14225506  0.41271379  0.58691820    -0.22400
H742        H  0.14715742  0.39114938  0.66126078     0.19400
H743        H  0.22726956  0.32207577  0.56418726     0.18200
H744        H  0.25432679  0.28220980  0.62578335     0.14400
H745        H  0.12237827  0.43306469  0.59944207     0.14300
H746        H  0.18260454  0.34058439  0.70581220     0.32500
H747        H  0.19001879  0.37017443  0.51926297     0.35200
C748        C  0.16357770  0.59557890  0.31843571     0.20800
C749        C  0.15341938  0.62652090  0.29862982    -0.39000
C750        C  0.17820375  0.63375472  0.26931394     0.19800
C751        C  0.21084869  0.61207705  0.26062269     0.22500
C752        C  0.22053842  0.58056961  0.27992085    -0.40300
C753        C  0.19550583  0.57306794  0.30904660     0.21300
N754        N  0.14566803  0.58384225  0.34836507    -0.32800
C755        C  0.16607416  0.55341878  0.35759383    -0.10400
C756        C  0.19712491  0.54541907  0.33374581    -0.29200
N757        N  0.23139669  0.62664281  0.23347709    -0.45800
C758        C  0.21141976  0.65755451  0.22451006    -0.05100
C759        C  0.17789797  0.66271282  0.24614800    -0.22400
H760        H  0.12859815  0.64418099  0.30604046     0.19400
H761        H  0.24615361  0.56366880  0.27327423     0.18200
H762        H  0.21823903  0.52295325  0.33480358     0.14400
H763        H  0.15733415  0.68571525  0.24637386     0.14300
H764        H  0.12093754  0.59542193  0.36145940     0.32500
H765        H  0.25787773  0.61656732  0.22252322     0.35200
C766        C  0.15213035  0.58590024  0.53152664     0.20800
C767        C  0.18532927  0.60271344  0.54803432    -0.39000
C768        C  0.17960910  0.63823954  0.56436556     0.19800
C769        C  0.14340741  0.65573997  0.56442789     0.22500
C770        C  0.10995183  0.63887054  0.54752534    -0.39500
C771        C  0.11573100  0.60300448  0.53091927     0.21300
N772        N  0.15097293  0.55281181  0.51339975    -0.32800
C773        C  0.11379308  0.54793019  0.50044188    -0.10400
C774        C  0.09053148  0.57887197  0.51100474    -0.29200
N775        N  0.14570166  0.68896587  0.58297488    -0.45800
C776        C  0.18364934  0.69257266  0.59482414    -0.05100
C777        C  0.20564606  0.66143271  0.58334680    -0.22400
H778        H  0.21370542  0.58901453  0.54809489     0.19400
H779        H  0.08162818  0.65263821  0.54733632     0.18200
H780        H  0.06019257  0.58390771  0.50384496     0.14400
H781        H  0.23616706  0.65567250  0.58933309     0.14300
H782        H  0.17488415  0.53491688  0.50876763     0.32500
H783        H  0.12256182  0.70770395  0.58761166     0.35200
C784        C  0.13343851  0.16706523  0.15293858     0.20800
C785        C  0.10478525  0.16858415  0.12552227    -0.39000
C786        C  0.09965608  0.13571757  0.10385878     0.19800
C787        C  0.12177049  0.10399856  0.10884783     0.22500
C788        C  0.15025959  0.10246715  0.13628926    -0.39500
C789        C  0.15498232  0.13513715  0.15820134     0.21300
N790        N  0.14541216  0.19499539  0.17593253    -0.32800
C791        C  0.17471584  0.18079558  0.19618417    -0.10400
C792        C  0.18127066  0.14330306  0.18583100    -0.29200
N793        N  0.11218374  0.07685037  0.08409791    -0.45800
C794        C  0.08350841  0.09126391  0.06340641    -0.05100
C795        C  0.07479405  0.12787634  0.07487188    -0.22400
H796        H  0.08808469  0.19361011  0.12109629     0.19400
H797        H  0.16782103  0.07780743  0.14000952     0.18200
H798        H  0.20369814  0.12475872  0.19526484     0.14400
H799        H  0.05359576  0.14637460  0.06321982     0.14300
H800        H  0.13536814  0.22249574  0.17687745     0.32500
H801        H  0.12441714  0.05019355  0.08139991     0.35200
C802        C  0.33989602  0.35457325  0.12968571     0.20800
C803        C  0.30086852  0.34431406  0.13665434    -0.39000
C804        C  0.29521748  0.32179694  0.16633402     0.19800
C805        C  0.32599215  0.31040628  0.18780767     0.22500
C806        C  0.36528491  0.32052922  0.18066074    -0.39500
C807        C  0.37105015  0.34301004  0.15065706     0.21300
N808        N  0.35245177  0.37697311  0.10382511    -0.32800
C809        C  0.39197243  0.37993305  0.10814929    -0.10400
C810        C  0.40489955  0.35883909  0.13690667    -0.29200
N811        N  0.31279161  0.28728549  0.21306343    -0.45800
C812        C  0.27354581  0.28342295  0.20695616    -0.05100
C813        C  0.26156759  0.30491172  0.17831246    -0.22400
H814        H  0.27663268  0.35299218  0.11992645     0.19400
H815        H  0.38956441  0.31137585  0.19706188     0.18200
H816        H  0.43447667  0.35712918  0.14762924     0.14400
H817        H  0.23250153  0.30609006  0.16634276     0.14300
H818        H  0.33494379  0.39034840  0.08509212     0.32500
H819        H  0.32977621  0.27287266  0.23144502     0.35200
C820        C  0.37053281  0.12136432  0.35471352     0.20800
C821        C  0.33472519  0.11539774  0.33598342    -0.39000
C822        C  0.31818720  0.14695425  0.32023705     0.19800
C823        C  0.33555380  0.18181715  0.32324981     0.22500
C824        C  0.37105425  0.18777740  0.34192186    -0.39500
C825        C  0.38766486  0.15634538  0.35713420     0.21300
N826        N  0.39283363  0.09627380  0.37198643    -0.32800
C827        C  0.42445538  0.11583930  0.38510163    -0.10400
C828        C  0.42177556  0.15320211  0.37624590    -0.29200
N829        N  0.31456310  0.20705352  0.30541229    -0.45800
C830        C  0.28350038  0.18821958  0.29045592    -0.05100
C831        C  0.28484562  0.15063435  0.29932768    -0.22400
H832        H  0.32098164  0.08821241  0.33343666     0.19400
H833        H  0.38504896  0.21487764  0.34412746     0.18200
H834        H  0.44216243  0.17548170  0.38364749     0.14400
H835        H  0.26439458  0.12863509  0.29140444     0.14300
H836        H  0.38668457  0.06811103  0.37494055     0.32500
H837        H  0.32164542  0.23509661  0.30280533     0.35200
C838        C  0.14284576  0.32036860  0.32436978     0.20800
C839        C  0.10965570  0.34247957  0.33444524    -0.39000
C840        C  0.11597698  0.37067159  0.36202461     0.19800
C841        C  0.15265897  0.37594741  0.37766663     0.22500
C842        C  0.18552748  0.35430417  0.36748308    -0.39500
C843        C  0.17922013  0.32637027  0.34037649     0.21300
N844        N  0.14521715  0.29233692  0.29867881    -0.32800
C845        C  0.18347392  0.28067944  0.29826354    -0.10400
C846        C  0.20537147  0.30138424  0.32413290    -0.29200
N847        N  0.15199089  0.40427066  0.40250995    -0.45800
C848        C  0.11475483  0.41794577  0.40360391    -0.05100
C849        C  0.09105760  0.39762930  0.37838666    -0.22400
H850        H  0.08120591  0.33815444  0.32168217     0.19400
H851        H  0.21416944  0.35909417  0.37974164     0.18200
H852        H  0.23643104  0.29904233  0.33008853     0.14400
H853        H  0.06041570  0.40228626  0.37213282     0.14300
H854        H  0.12234647  0.28262865  0.28180132     0.32500
H855        H  0.17608101  0.41438809  0.41765080     0.35200
loop_ 
_geom_bond_atom_site_label_1 
_geom_bond_atom_site_label_2 
_geom_bond_distance 
_geom_bond_site_symmetry_2 
_ccdc_geom_bond_type 
C1            C2   1.534       .  S
C1            C7   1.528       .  S
C1            C5   1.536       .  S
C1          C791   1.514       .  S
C2            H9   1.081       .  S
C2            C3   1.364       .  D
C3            C4   1.552       .  S
C3          C830   1.495       .  S
C4            C8   1.544       .  S
C4            C6   1.558       .  S
C4           H10   1.108       .  S
C5           H11   1.085       .  S
C5            C6   1.371       .  D
C6          C845   1.496       .  S
C7           H12   1.087       .  S
C7            C8   1.362       .  D
C8          C812   1.482       .  S
C13          C15   1.526       .  S
C13          C17   1.529       .  S
C13          C16   1.560       .  S
C13         C848   1.526       .  S
C14          C18   1.532       .  S
C14          C20   1.534       .  S
C14          C19   1.557       .  S
C14         C773   1.525       .  S
C15          C23   1.376       .  A
C15          C18   1.389       .  A
C16          C27   1.382       .  A
C16          C19   1.418       .  A
C17          C31   1.375       .  A
C17          C20   1.385       .  A
C18          C21   1.379       .  A
C19          C25   1.387       .  A
C20          C28   1.379       .  A
C21          N22   1.354       .  A
C21          H34   1.083       .  S
N22          C23   1.351       .  A
N22         C755   1.426       .  S
C23          H24   1.083       .  S
C25          N26   1.366       .  A
C25          H35   1.081       .  S
N26          C27   1.366       .  A
N26         N108   1.423   1_455  S
C27          H33   1.080       .  S
C28          N29   1.357       .  A
C28          H30   1.082       .  S
N29          C31   1.355       .  A
N29         C740   1.431       .  S
C31          H32   1.082       .  S
C36          C37   1.532       .  S
C36          C42   1.533       .  S
C36          C40   1.534       .  S
C36         C686   1.511       .  S
C37          H44   1.085       .  S
C37          C38   1.365       .  D
C38          C39   1.555       .  S
C38         C719   1.492       .  S
C39          C43   1.548       .  S
C39          C41   1.560       .  S
C39          H45   1.108       .  S
C40          H46   1.084       .  S
C40          C41   1.369       .  D
C41         C776   1.496       .  S
C42          H47   1.086       .  S
C42          C43   1.364       .  D
C43         C701   1.495       .  S
C48          C50   1.532       .  S
C48          C52   1.546       .  S
C48          C51   1.570       .  S
C48         C827   1.522       .  S
C49          C53   1.526       .  S
C49          C55   1.532       .  S
C49          C54   1.541       .  S
C49         C629   1.507       .  S
C50          C58   1.379       .  A
C50          C53   1.387       .  A
C51          C62   1.398       .  A
C51          C54   1.412       .  A
C52          C66   1.389       .  A
C52          C55   1.384       .  A
C53          C56   1.379       .  A
C54          C60   1.374       .  A
C55          C63   1.380       .  A
C56          N57   1.350       .  A
C56          H69   1.083       .  S
N57          C58   1.352       .  A
N57         C650   1.428       .  S
C58          H59   1.082       .  S
C60          N61   1.354       .  A
C60          H70   1.081       .  S
N61          C62   1.369       .  A
N61         N155   1.415   1_545  S
C62          H68   1.081       .  S
C63          N64   1.358       .  A
C63          H65   1.082       .  S
N64          C66   1.360       .  A
N64         C668   1.443       .  S
C66          H67   1.082       .  S
C71          C72   1.539       .  S
C71          C77   1.529       .  S
C71          C75   1.533       .  S
C71         C578   1.506       .  S
C72          H79   1.084       .  S
C72          C73   1.369       .  D
C73          C74   1.557       .  S
C73         C614   1.491       .  S
C74          C78   1.554       .  S
C74          C76   1.543       .  S
C74          H80   1.108       .  S
C75          H81   1.087       .  S
C75          C76   1.359       .  D
C76         C665   1.487       .  S
C77          H82   1.085       .  S
C77          C78   1.364       .  D
C78         C593   1.489       .  S
C83          C84   1.546       .  S
C83          C89   1.539       .  S
C83          C87   1.535       .  S
C83         C539   1.510       .  S
C84          H91   1.083       .  S
C84          C85   1.360       .  D
C85          C86   1.529       .  S
C85         C737   1.467       .  S
C86          C90   1.539       .  S
C86          C88   1.529       .  S
C86          H92   1.111       .  S
C87          H93   1.087       .  S
C87          C88   1.361       .  D
C88         C647   1.467       .  S
C89          H94   1.086       .  S
C89          C90   1.368       .  D
C90         C557   1.474       .  S
C95          C97   1.534       .  S
C95          C99   1.530       .  S
C95          C98   1.567       .  S
C95         C485   1.528       .  S
C96         C100   1.531       .  S
C96         C102   1.535       .  S
C96         C101   1.550       .  S
C96         C611   1.524       .  S
C97         C105   1.380       .  A
C97         C100   1.391       .  A
C98         C109   1.389       .  A
C98         C101   1.418       .  A
C99         C113   1.378       .  A
C99         C102   1.381       .  A
C100        C103   1.381       .  A
C101        C107   1.379       .  A
C102        C110   1.381       .  A
C103        N104   1.352       .  A
C103        H116   1.083       .  S
N104        C105   1.355       .  A
N104        C521   1.432       .  S
C105        H106   1.083       .  S
C107        N108   1.364       .  A
C107        H117   1.081       .  S
N108        C109   1.368       .  A
C109        H115   1.080       .  S
C110        N111   1.356       .  A
C110        H112   1.082       .  S
N111        C113   1.354       .  A
N111        C506   1.431       .  S
C113        H114   1.082       .  S
C118        C119   1.539       .  S
C118        C124   1.538       .  S
C118        C122   1.547       .  S
C118        C431   1.511       .  S
C119        H126   1.086       .  S
C119        C120   1.364       .  D
C120        C121   1.538       .  S
C120        C467   1.475       .  S
C121        C125   1.533       .  S
C121        C123   1.532       .  S
C121        H127   1.110       .  S
C122        H128   1.082       .  S
C122        C123   1.362       .  D
C123        C524   1.481       .  S
C124        H129   1.086       .  S
C124        C125   1.366       .  D
C125        C449   1.470       .  S
C130        C131   1.544       .  S
C130        C136   1.541       .  S
C130        C134   1.540       .  S
C130        C395   1.513       .  S
C131        H138   1.084       .  S
C131        C132   1.367       .  D
C132        C133   1.536       .  S
C132        C632   1.473       .  S
C133        C137   1.529       .  S
C133        C135   1.529       .  S
C133        H139   1.111       .  S
C134        H140   1.086       .  S
C134        C135   1.362       .  D
C135        C503   1.468       .  S
C136        H141   1.086       .  S
C136        C137   1.366       .  D
C137        C413   1.475       .  S
C142        C144   1.533       .  S
C142        C146   1.541       .  S
C142        C145   1.566       .  S
C142        C722   1.524       .  S
C143        C147   1.530       .  S
C143        C149   1.537       .  S
C143        C148   1.545       .  S
C143        C470   1.515       .  S
C144        C152   1.378       .  A
C144        C147   1.390       .  A
C145        C156   1.395       .  A
C145        C148   1.413       .  A
C146        C160   1.386       .  A
C146        C149   1.385       .  A
C147        C150   1.382       .  A
C148        C154   1.376       .  A
C149        C157   1.382       .  A
C150        N151   1.353       .  A
C150        H163   1.083       .  S
N151        C152   1.352       .  A
N151        C377   1.430       .  S
C152        H153   1.083       .  S
C154        N155   1.357       .  A
C154        H164   1.081       .  S
N155        C156   1.368       .  A
C156        H162   1.081       .  S
C157        N158   1.356       .  A
C157        H159   1.082       .  S
N158        C160   1.357       .  A
N158        C359   1.439       .  S
C160        H161   1.082       .  S
C165        C166   1.543       .  S
C165        C171   1.540       .  S
C165        C169   1.531       .  S
C165        C326   1.513       .  S
C166        H173   1.083       .  S
C166        C167   1.365       .  D
C167        C168   1.534       .  S
C167        C758   1.478       .  S
C168        C172   1.539       .  S
C168        C170   1.534       .  S
C168        H174   1.110       .  S
C169        H175   1.087       .  S
C169        C170   1.362       .  D
C170        C380   1.469       .  S
C171        H176   1.086       .  S
C171        C172   1.368       .  D
C172        C341   1.478       .  S
C177        C178   1.539       .  S
C177        C183   1.527       .  S
C177        C181   1.529       .  S
C177        C287   1.508       .  S
C178        H185   1.082       .  S
C178        C179   1.372       .  D
C179        C180   1.560       .  S
C179        C488   1.501       .  S
C180        C184   1.557       .  S
C180        C182   1.545       .  S
C180        H186   1.107       .  S
C181        H187   1.087       .  S
C181        C182   1.360       .  D
C182        C362   1.484       .  S
C183        H188   1.086       .  S
C183        C184   1.363       .  D
C184        C305   1.492       .  S
C189        C191   1.534       .  S
C189        C193   1.539       .  S
C189        C192   1.574       .  S
C189        C596   1.520       .  S
C190        C194   1.527       .  S
C190        C196   1.542       .  S
C190        C195   1.540       .  S
C190        C344   1.516       .  S
C191        C199   1.378       .  A
C191        C194   1.384       .  A
C192        C203   1.400   1_554  A
C192        C195   1.412       .  A
C193        C207   1.388       .  A
C193        C196   1.384       .  A
C194        C197   1.380       .  A
C195        C201   1.375   1_554  A
C196        C204   1.381       .  A
C197        N198   1.355       .  A
C197        H210   1.082       .  S
N198        C199   1.356       .  A
N198        C452   1.432       .  S
C199        H200   1.083       .  S
C201        N202   1.358       .  A
C201        H211   1.082       .  S
N202        C203   1.371       .  A
N202        N225   1.419       .  S
C203        H209   1.081       .  S
C204        N205   1.356       .  A
C204        H206   1.081       .  S
N205        C207   1.359       .  A
N205        C809   1.442       .  S
C207        H208   1.082       .  S
C212        C214   1.535       .  S
C212        C216   1.550       .  S
C212        C215   1.572       .  S
C212        C308   1.525       .  S
C213        C217   1.533       .  S
C213        C219   1.539       .  S
C213        C218   1.543       .  S
C213        C560   1.510       .  S
C214        C222   1.381       .  A
C214        C217   1.386       .  A
C215        C226   1.401       .  A
C215        C218   1.411       .  A
C216        C230   1.392       .  A
C216        C219   1.384       .  A
C217        C220   1.386       .  A
C218        C224   1.376       .  A
C219        C227   1.387       .  A
C220        N221   1.356       .  A
C220        H233   1.083       .  S
N221        C222   1.355       .  A
N221        C416   1.436       .  S
C222        H223   1.083       .  S
C224        N225   1.357       .  A
C224        H234   1.082       .  S
N225        C226   1.371       .  A
C226        H232   1.081       .  S
C227        N228   1.359       .  A
C227        H229   1.082       .  S
N228        C230   1.360       .  A
N228        C704   1.448       .  S
C230        H231   1.082       .  S
N235        N236   1.321   1_556  A
N235        N241   1.316       .  A
N235       Mn264   2.208   1_455  S
N236        C243   1.353       .  A
N237        N239   1.314       .  A
N237        N238   1.320       .  A
N237       Mn253   2.200   1_545  S
N238        C244   1.353       .  A
N239        N240   1.317       .  A
N239       Mn264   2.182   1_455  S
N240        C244   1.350       .  A
N241        N242   1.319   1_556  A
N241       Mn253   2.193   1_545  S
N242        C243   1.351       .  A
C243        C794   1.467       .  S
C244        C542   1.462       .  S
N245        N251   1.315       .  A
N245        N246   1.322       .  A
N245       Mn275   2.210   1_455  S
N246        C254   1.354       .  A
N247        N248   1.321   1_556  A
N247        N249   1.314       .  A
N247       Mn253   2.200       .  S
N248        C255   1.353       .  A
N249        N250   1.319   1_556  A
N249       Mn275   2.195   1_455  S
N250        C255   1.352       .  A
N251        N252   1.319       .  A
N251       Mn253   2.193       .  S
N252        C254   1.351       .  A
Mn253      Cl277   2.553   1_455  S
C254        C683   1.469       .  S
C255        C323   1.467       .  S
N256        N257   1.321       .  A
N256        N262   1.316       .  A
N256       Mn264   2.209       .  S
N257        C265   1.354       .  A
N258        N260   1.315       .  A
N258        N259   1.325   1_556  A
N258       Mn276   2.224   1_545  S
N259        C266   1.357       .  A
N260        N261   1.316   1_556  A
N260       Mn264   2.178       .  S
N261        C266   1.347       .  A
N262        N263   1.320       .  A
N262       Mn276   2.199   1_545  S
N263        C265   1.352       .  A
Mn264      Cl277   2.536   1_545  S
C265        C398   1.469       .  S
C266        C575   1.467       .  S
N267        N268   1.320   1_556  A
N267        N273   1.317       .  A
N267       Mn275   2.207       .  S
N268        C278   1.352       .  A
N269        N270   1.322       .  A
N269        N271   1.315       .  A
N269       Mn276   2.210       .  S
N270        C279   1.355       .  A
N271        N272   1.317       .  A
N271       Mn275   2.185       .  S
N272        C279   1.348       .  A
N273        N274   1.319   1_556  A
N273       Mn276   2.199       .  S
N274        C278   1.351       .  A
Mn275      Cl277   2.535       .  S
Mn276      Cl277   2.555       .  S
C278        C434   1.465       .  S
C279        C290   1.464       .  S
C280        C285   1.383       .  A
C280        C281   1.403       .  A
C280        N286   1.340       .  A
C281        C282   1.401       .  A
C281        H292   1.082       .  S
C282        C291   1.379       .  A
C282        C283   1.385       .  A
C283        C284   1.402       .  A
C283        N289   1.340       .  A
C284        C285   1.400       .  A
C284        H293   1.082       .  S
C285        C288   1.378       .  A
N286        C287   1.357       .  A
N286        H296   1.045       .  S
C287        C288   1.397       .  A
C288        H294   1.081       .  S
N289        C290   1.354       .  A
N289        H297   1.045       .  S
C290        C291   1.394       .  A
C291        H295   1.082       .  S
C298        C303   1.384       .  A
C298        C299   1.395       .  A
C298        N304   1.344       .  A
C299        C300   1.398       .  A
C299        H310   1.083       .  S
C300        C309   1.360       .  A
C300        C301   1.383       .  A
C301        C302   1.415       .  A
C301        N307   1.361       .  A
C302        C303   1.419       .  A
C302        H311   1.082       .  S
C303        C306   1.385       .  A
N304        C305   1.352       .  A
N304        H314   1.044       .  S
C305        C306   1.408       .  A
C306        H312   1.082       .  S
N307        C308   1.362       .  A
N307        H315   1.044       .  S
C308        C309   1.396       .  A
C309        H313   1.083       .  S
C316        C321   1.385       .  A
C316        C317   1.401       .  A
C316        N322   1.342       .  A
C317        C318   1.400       .  A
C317        H328   1.082       .  S
C318        C327   1.374       .  A
C318        C319   1.382       .  A
C319        C320   1.404       .  A
C319        N325   1.344       .  A
C320        C321   1.404       .  A
C320        H329   1.082       .  S
C321        C324   1.379       .  A
N322        C323   1.354       .  A
N322        H332   1.045       .  S
C323        C324   1.395       .  A
C324        H330   1.082       .  S
N325        C326   1.358       .  A
N325        H333   1.045       .  S
C326        C327   1.399       .  A
C327        H331   1.081       .  S
C334        C339   1.384       .  A
C334        C335   1.393       .  A
C334        N340   1.337       .  A
C335        C336   1.394       .  A
C335        H346   1.083       .  S
C336        C345   1.361       .  A
C336        C337   1.380       .  A
C337        C338   1.413       .  A
C337        N343   1.352       .  A
C338        C339   1.413       .  A
C338        H347   1.082       .  S
C339        C342   1.388       .  A
N340        C341   1.351       .  A
N340        H350   1.043       .  S
C341        C342   1.401       .  A
C342        H348   1.082       .  S
N343        C344   1.363       .  A
N343        H351   1.044       .  S
C344        C345   1.398       .  A
C345        H349   1.080       .  S
C352        C357   1.385       .  A
C352        C353   1.411       .  A
C352        N358   1.348       .  A
C353        C354   1.410       .  A
C353        H364   1.082       .  S
C354        C363   1.390       .  A
C354        C355   1.384       .  A
C355        C356   1.403       .  A
C355        N361   1.340       .  A
C356        C357   1.400       .  A
C356        H365   1.082       .  S
C357        C360   1.379       .  A
N358        C359   1.358       .  A
N358        H368   1.044       .  S
C359        C360   1.394       .  A
C360        H366   1.082       .  S
N361        C362   1.356       .  A
N361        H369   1.045       .  S
C362        C363   1.399       .  A
C363        H367   1.082       .  S
C370        C375   1.387       .  A
C370        C371   1.399       .  A
C370        N376   1.340       .  A
C371        C372   1.398       .  A
C371        H382   1.083       .  S
C372        C381   1.371       .  A
C372        C373   1.385       .  A
C373        C374   1.404       .  A
C373        N379   1.345       .  A
C374        C375   1.404       .  A
C374        H383   1.082       .  S
C375        C378   1.380       .  A
N376        C377   1.352       .  A
N376        H386   1.044       .  S
C377        C378   1.394       .  A
C378        H384   1.082       .  S
N379        C380   1.355       .  A
N379        H387   1.045       .  S
C380        C381   1.392       .  A
C381        H385   1.082       .  S
C388        C393   1.383       .  A
C388        C389   1.403       .  A
C388        N394   1.341       .  A
C389        C390   1.402       .  A
C389        H400   1.082       .  S
C390        C399   1.378       .  A
C390        C391   1.385       .  A
C391        C392   1.405       .  A
C391        N397   1.344       .  A
C392        C393   1.404       .  A
C392        H401   1.082       .  S
C393        C396   1.381       .  A
N394        C395   1.356       .  A
N394        H404   1.045       .  S
C395        C396   1.400       .  A
C396        H402   1.081       .  S
N397        C398   1.356       .  A
N397        H405   1.045       .  S
C398        C399   1.394       .  A
C399        H403   1.082       .  S
C406        C411   1.385       .  A
C406        C407   1.402       .  A
C406        N412   1.344       .  A
C407        C408   1.402       .  A
C407        H418   1.082       .  S
C408        C417   1.378       .  A
C408        C409   1.386       .  A
C409        C410   1.406       .  A
C409        N415   1.347       .  A
C410        C411   1.406       .  A
C410        H419   1.082       .  S
C411        C414   1.380       .  A
N412        C413   1.354       .  A
N412        H422   1.045       .  S
C413        C414   1.396       .  A
C414        H420   1.083       .  S
N415        C416   1.356       .  A
N415        H423   1.044       .  S
C416        C417   1.393       .  A
C417        H421   1.082       .  S
C424        C429   1.383       .  A
C424        C425   1.402       .  A
C424        N430   1.343       .  A
C425        C426   1.402       .  A
C425        H436   1.082       .  S
C426        C435   1.375       .  A
C426        C427   1.385       .  A
C427        C428   1.400       .  A
C427        N433   1.343       .  A
C428        C429   1.401       .  A
C428        H437   1.083       .  S
C429        C432   1.372       .  A
N430        C431   1.356       .  A
N430        H440   1.045       .  S
C431        C432   1.400       .  A
C432        H438   1.080       .  S
N433        C434   1.354       .  A
N433        H441   1.045       .  S
C434        C435   1.393       .  A
C435        H439   1.082       .  S
C442        C447   1.385       .  A
C442        C443   1.400       .  A
C442        N448   1.339       .  A
C443        C444   1.398       .  A
C443        H454   1.082       .  S
C444        C453   1.375       .  A
C444        C445   1.386       .  A
C445        C446   1.406       .  A
C445        N451   1.345       .  A
C446        C447   1.405       .  A
C446        H455   1.082       .  S
C447        C450   1.382       .  A
N448        C449   1.352       .  A
N448        H458   1.045       .  S
C449        C450   1.396       .  A
C450        H456   1.082       .  S
N451        C452   1.356       .  A
N451        H459   1.044       .  S
C452        C453   1.391       .  A
C453        H457   1.082       .  S
C460        C465   1.384       .  A
C460        C461   1.393       .  A
C460        N466   1.337       .  A
C461        C462   1.393       .  A
C461        H472   1.083       .  S
C462        C471   1.361       .  A
C462        C463   1.382       .  A
C463        C464   1.412       .  A
C463        N469   1.352       .  A
C464        C465   1.412       .  A
C464        H473   1.082       .  S
C465        C468   1.387       .  A
N466        C467   1.350       .  A
N466        H476   1.039       .  S
C467        C468   1.400       .  A
C468        H474   1.082       .  S
N469        C470   1.361       .  A
N469        H477   1.042       .  S
C470        C471   1.394       .  A
C471        H475   1.082       .  S
C478        C483   1.382       .  A
C478        C479   1.413       .  A
C478        N484   1.359       .  A
C479        C480   1.417       .  A
C479        H490   1.082       .  S
C480        C489   1.386       .  A
C480        C481   1.383       .  A
C481        C482   1.399       .  A
C481        N487   1.346       .  A
C482        C483   1.401       .  A
C482        H491   1.083       .  S
C483        C486   1.366       .  A
N484        C485   1.361       .  A
N484        H494   1.043       .  S
C485        C486   1.399       .  A
C486        H492   1.083       .  S
N487        C488   1.356       .  A
N487        H495   1.043       .  S
C488        C489   1.408       .  A
C489        H493   1.081       .  S
C496        C501   1.385       .  A
C496        C497   1.403       .  A
C496        N502   1.343       .  A
C497        C498   1.402       .  A
C497        H508   1.082       .  S
C498        C507   1.378       .  A
C498        C499   1.386       .  A
C499        C500   1.402       .  A
C499        N505   1.343       .  A
C500        C501   1.401       .  A
C500        H509   1.082       .  S
C501        C504   1.376       .  A
N502        C503   1.354       .  A
N502        H512   1.045       .  S
C503        C504   1.392       .  A
C504        H510   1.083       .  S
N505        C506   1.354       .  A
N505        H513   1.044       .  S
C506        C507   1.393       .  A
C507        H511   1.082       .  S
C514        C519   1.386       .  A
C514        C515   1.407       .  A
C514        N520   1.346       .  A
C515        C516   1.406       .  A
C515        H526   1.082       .  S
C516        C525   1.382       .  A
C516        C517   1.383       .  A
C517        C518   1.400       .  A
C517        N523   1.341       .  A
C518        C519   1.399       .  A
C518        H527   1.082       .  S
C519        C522   1.375       .  A
N520        C521   1.356       .  A
N520        H530   1.044       .  S
C521        C522   1.390       .  A
C522        H528   1.082       .  S
N523        C524   1.354       .  A
N523        H531   1.040       .  S
C524        C525   1.399       .  A
C525        H529   1.082       .  S
C532        C537   1.382       .  A
C532        C533   1.404       .  A
C532        N538   1.343       .  A
C533        C534   1.403       .  A
C533        H544   1.082       .  S
C534        C543   1.377       .  A
C534        C535   1.385       .  A
C535        C536   1.399       .  A
C535        N541   1.340       .  A
C536        C537   1.398       .  A
C536        H545   1.083       .  S
C537        C540   1.371       .  A
N538        C539   1.358       .  A
N538        H548   1.045       .  S
C539        C540   1.398       .  A
C540        H546   1.080       .  S
N541        C542   1.353       .  A
N541        H549   1.045       .  S
C542        C543   1.394       .  A
C543        H547   1.082       .  S
C550        C555   1.383       .  A
C550        C551   1.410       .  A
C550        N556   1.348       .  A
C551        C552   1.410       .  A
C551        H562   1.082       .  S
C552        C561   1.386       .  A
C552        C553   1.382       .  A
C553        C554   1.396       .  A
C553        N559   1.334       .  A
C554        C555   1.392       .  A
C554        H563   1.083       .  S
C555        C558   1.368       .  A
N556        C557   1.359       .  A
N556        H566   1.044       .  S
C557        C558   1.390       .  A
C558        H564   1.083       .  S
N559        C560   1.355       .  A
N559        H567   1.044       .  S
C560        C561   1.403       .  A
C561        H565   1.081       .  S
C568        C573   1.385       .  A
C568        C569   1.403       .  A
C568        N574   1.340       .  A
C569        C570   1.400       .  A
C569        H580   1.082       .  S
C570        C579   1.379       .  A
C570        C571   1.383       .  A
C571        C572   1.403       .  A
C571        N577   1.339       .  A
C572        C573   1.401       .  A
C572        H581   1.082       .  S
C573        C576   1.381       .  A
N574        C575   1.355       .  A
N574        H584   1.045       .  S
C575        C576   1.394       .  A
C576        H582   1.082       .  S
N577        C578   1.357       .  A
N577        H585   1.045       .  S
C578        C579   1.397       .  A
C579        H583   1.081       .  S
C586        C591   1.382       .  A
C586        C587   1.417       .  A
C586        N592   1.348       .  A
C587        C588   1.413       .  A
C587        H598   1.082       .  S
C588        C597   1.399       .  A
C588        C589   1.382       .  A
C589        C590   1.399       .  A
C589        N595   1.333       .  A
C590        C591   1.394       .  A
C590        H599   1.083       .  S
C591        C594   1.376       .  A
N592        C593   1.364       .  A
N592        H602   1.044       .  S
C593        C594   1.391       .  A
C594        H600   1.082       .  S
N595        C596   1.356       .  A
N595        H603   1.045       .  S
C596        C597   1.403       .  A
C597        H601   1.081       .  S
C604        C609   1.381       .  A
C604        C605   1.416       .  A
C604        N610   1.361       .  A
C605        C606   1.420       .  A
C605        H616   1.082       .  S
C606        C615   1.389       .  A
C606        C607   1.384       .  A
C607        C608   1.393       .  A
C607        N613   1.341       .  A
C608        C609   1.395       .  A
C608        H617   1.083       .  S
C609        C612   1.359       .  A
N610        C611   1.364       .  A
N610        H620   1.044       .  S
C611        C612   1.396       .  A
C612        H618   1.083       .  S
N613        C614   1.352       .  A
N613        H621   1.044       .  S
C614        C615   1.408       .  A
C615        H619   1.082       .  S
C622        C627   1.382       .  A
C622        C623   1.396       .  A
C622        N628   1.334       .  A
C623        C624   1.393       .  A
C623        H634   1.083       .  S
C624        C633   1.368       .  A
C624        C625   1.383       .  A
C625        C626   1.408       .  A
C625        N631   1.347       .  A
C626        C627   1.408       .  A
C626        H635   1.082       .  S
C627        C630   1.384       .  A
N628        C629   1.356       .  A
N628        H638   1.044       .  S
C629        C630   1.402       .  A
C630        H636   1.080       .  S
N631        C632   1.358       .  A
N631        H639   1.044       .  S
C632        C633   1.391       .  A
C633        H637   1.083       .  S
C640        C645   1.385       .  A
C640        C641   1.402       .  A
C640        N646   1.343       .  A
C641        C642   1.402       .  A
C641        H652   1.082       .  S
C642        C651   1.376       .  A
C642        C643   1.387       .  A
C643        C644   1.400       .  A
C643        N649   1.341       .  A
C644        C645   1.400       .  A
C644        H653   1.082       .  S
C645        C648   1.374       .  A
N646        C647   1.354       .  A
N646        H656   1.045       .  S
C647        C648   1.392       .  A
C648        H654   1.082       .  S
N649        C650   1.353       .  A
N649        H657   1.044       .  S
C650        C651   1.393       .  A
C651        H655   1.082       .  S
C658        C663   1.384       .  A
C658        C659   1.404       .  A
C658        N664   1.343       .  A
C659        C660   1.402       .  A
C659        H670   1.082       .  S
C660        C669   1.379       .  A
C660        C661   1.384       .  A
C661        C662   1.413       .  A
C661        N667   1.351       .  A
C662        C663   1.412       .  A
C662        H671   1.082       .  S
C663        C666   1.391       .  A
N664        C665   1.356       .  A
N664        H674   1.045       .  S
C665        C666   1.400       .  A
C666        H672   1.082       .  S
N667        C668   1.360       .  A
N667        H675   1.044       .  S
C668        C669   1.395       .  A
C669        H673   1.082       .  S
C676        C681   1.384       .  A
C676        C677   1.405       .  A
C676        N682   1.345       .  A
C677        C678   1.404       .  A
C677        H688   1.082       .  S
C678        C687   1.380       .  A
C678        C679   1.383       .  A
C679        C680   1.402       .  A
C679        N685   1.341       .  A
C680        C681   1.400       .  A
C680        H689   1.083       .  S
C681        C684   1.376       .  A
N682        C683   1.356       .  A
N682        H692   1.045       .  S
C683        C684   1.394       .  A
C684        H690   1.083       .  S
N685        C686   1.357       .  A
N685        H693   1.044       .  S
C686        C687   1.399       .  A
C687        H691   1.082       .  S
C694        C699   1.383       .  A
C694        C695   1.407       .  A
C694        N700   1.345       .  A
C695        C696   1.405       .  A
C695        H706   1.082       .  S
C696        C705   1.384       .  A
C696        C697   1.384       .  A
C697        C698   1.415       .  A
C697        N703   1.352       .  A
C698        C699   1.413       .  A
C698        H707   1.082       .  S
C699        C702   1.393       .  A
N700        C701   1.358       .  A
N700        H710   1.045       .  S
C701        C702   1.402       .  A
C702        H708   1.082       .  S
N703        C704   1.360       .  A
N703        H711   1.044       .  S
C704        C705   1.397       .  A
C705        H709   1.082       .  S
C712        C717   1.384       .  A
C712        C713   1.396       .  A
C712        N718   1.344       .  A
C713        C714   1.399       .  A
C713        H724   1.083       .  S
C714        C723   1.361       .  A
C714        C715   1.383       .  A
C715        C716   1.413       .  A
C715        N721   1.359       .  A
C716        C717   1.417       .  A
C716        H725   1.082       .  S
C717        C720   1.384       .  A
N718        C719   1.353       .  A
N718        H728   1.044       .  S
C719        C720   1.406       .  A
C720        H726   1.082       .  S
N721        C722   1.361       .  A
N721        H729   1.043       .  S
C722        C723   1.397       .  A
C723        H727   1.083       .  S
C730        C735   1.385       .  A
C730        C731   1.404       .  A
C730        N736   1.344       .  A
C731        C732   1.403       .  A
C731        H742   1.082       .  S
C732        C741   1.379       .  A
C732        C733   1.387       .  A
C733        C734   1.400       .  A
C733        N739   1.341       .  A
C734        C735   1.399       .  A
C734        H743   1.082       .  S
C735        C738   1.374       .  A
N736        C737   1.354       .  A
N736        H746   1.045       .  S
C737        C738   1.390       .  A
C738        H744   1.083       .  S
N739        C740   1.353       .  A
N739        H747   1.044       .  S
C740        C741   1.394       .  A
C741        H745   1.082       .  S
C748        C753   1.387       .  A
C748        C749   1.400       .  A
C748        N754   1.341       .  A
C749        C750   1.400       .  A
C749        H760   1.082       .  S
C750        C759   1.375       .  A
C750        C751   1.384       .  A
C751        C752   1.403       .  A
C751        N757   1.342       .  A
C752        C753   1.402       .  A
C752        H761   1.082       .  S
C753        C756   1.378       .  A
N754        C755   1.352       .  A
N754        H764   1.044       .  S
C755        C756   1.392       .  A
C756        H762   1.082       .  S
N757        C758   1.356       .  A
N757        H765   1.043       .  S
C758        C759   1.395       .  A
C759        H763   1.082       .  S
C766        C771   1.382       .  A
C766        C767   1.403       .  A
C766        N772   1.336       .  A
C767        C768   1.398       .  A
C767        H778   1.082       .  S
C768        C777   1.381       .  A
C768        C769   1.381       .  A
C769        C770   1.417       .  A
C769        N775   1.349       .  A
C770        C771   1.414       .  A
C770        H779   1.082       .  S
C771        C774   1.400       .  A
N772        C773   1.358       .  A
N772        H782   1.045       .  S
C773        C774   1.404       .  A
C774        H780   1.081       .  S
N775        C776   1.365       .  A
N775        H783   1.044       .  S
C776        C777   1.394       .  A
C777        H781   1.082       .  S
C784        C789   1.382       .  A
C784        C785   1.404       .  A
C784        N790   1.344       .  A
C785        C786   1.404       .  A
C785        H796   1.082       .  S
C786        C795   1.378       .  A
C786        C787   1.385       .  A
C787        C788   1.401       .  A
C787        N793   1.342       .  A
C788        C789   1.401       .  A
C788        H797   1.083       .  S
C789        C792   1.374       .  A
N790        C791   1.357       .  A
N790        H800   1.045       .  S
C791        C792   1.400       .  A
C792        H798   1.080       .  S
N793        C794   1.354       .  A
N793        H801   1.045       .  S
C794        C795   1.394       .  A
C795        H799   1.082       .  S
C802        C807   1.385       .  A
C802        C803   1.402       .  A
C802        N808   1.342       .  A
C803        C804   1.401       .  A
C803        H814   1.083       .  S
C804        C813   1.375       .  A
C804        C805   1.384       .  A
C805        C806   1.410       .  A
C805        N811   1.350       .  A
C806        C807   1.410       .  A
C806        H815   1.082       .  S
C807        C810   1.387       .  A
N808        C809   1.355       .  A
N808        H818   1.044       .  S
C809        C810   1.400       .  A
C810        H816   1.082       .  S
N811        C812   1.357       .  A
N811        H819   1.045       .  S
C812        C813   1.395       .  A
C813        H817   1.083       .  S
C820        C825   1.383       .  A
C820        C821   1.409       .  A
C820        N826   1.358       .  A
C821        C822   1.414       .  A
C821        H832   1.082       .  S
C822        C831   1.379       .  A
C822        C823   1.384       .  A
C823        C824   1.399       .  A
C823        N829   1.348       .  A
C824        C825   1.402       .  A
C824        H833   1.083       .  S
C825        C828   1.363       .  A
N826        C827   1.359       .  A
N826        H836   1.043       .  S
C827        C828   1.399       .  A
C828        H834   1.083       .  S
N829        C830   1.355       .  A
N829        H837   1.044       .  S
C830        C831   1.405       .  A
C831        H835   1.081       .  S
C838        C843   1.381       .  A
C838        C839   1.418       .  A
C838        N844   1.350       .  A
C839        C840   1.415       .  A
C839        H850   1.082       .  S
C840        C849   1.401       .  A
C840        C841   1.381       .  A
C841        C842   1.401       .  A
C841        N847   1.335       .  A
C842        C843   1.397       .  A
C842        H851   1.082       .  S
C843        C846   1.379       .  A
N844        C845   1.365       .  A
N844        H854   1.044       .  S
C845        C846   1.394       .  A
C846        H852   1.081       .  S
N847        C848   1.357       .  A
N847        H855   1.045       .  S
C848        C849   1.406       .  A
C849        H853   1.081       .  S
