geometry optimzed in LAMMPS
_audit_creation_date              2020-12-01 
_audit_creation_method            'lammps2cif' 
_symmetry_space_group_name_H-M    'P1' 
_symmetry_Int_Tables_number       1 
_symmetry_cell_setting            triclinic 
loop_ 
_symmetry_equiv_pos_as_xyz 
  x,y,z 
_cell_length_a                    33.49831133 
_cell_length_b                    32.378498137887426 
_cell_length_c                    32.38047411838929 
_cell_angle_alpha                 90.0004628160757 
_cell_angle_beta                  89.99878061573791 
_cell_angle_gamma                 90.00237800901189 
loop_ 
_atom_site_label 
_atom_site_type_symbol 
_atom_site_fract_x 
_atom_site_fract_y 
_atom_site_fract_z 
_atom_site_charge 
N1          N  0.45649183  0.07537818  0.04866548    -0.05500
N2          N  0.42915284  0.10360220  0.05677639    -0.57700
N3          N  0.04807101  0.04682789  0.07755553    -0.05200
N4          N  0.07531969  0.05503375  0.10584637    -0.59800
N5          N  0.04806906  0.07554762  0.04881693    -0.04800
N6          N  0.07531798  0.10384908  0.05700116    -0.57600
N7          N  0.45649741  0.04666387  0.07740590    -0.04500
N8          N  0.42916250  0.05479749  0.10562656    -0.60100
C9          C  0.41202656  0.09018690  0.09218105     0.96600
C10         C  0.09238733  0.09047996  0.09245349     0.96400
N11         N  0.04829416  0.42047384  0.04885280    -0.05700
N12         N  0.07563109  0.39227067  0.05702990    -0.58200
N13         N  0.45664292  0.44909467  0.07744033    -0.03800
N14         N  0.42930731  0.44094955  0.10565429    -0.59500
N15         N  0.45673028  0.42032550  0.04875315    -0.05800
N16         N  0.42946484  0.39203537  0.05690887    -0.58500
N17         N  0.04821148  0.44919883  0.07758599    -0.03500
N18         N  0.07548452  0.44108146  0.10587823    -0.59600
Mn19       Mn  0.50235786  0.99794523  0.07858833     1.18400
C20         C  0.09266599  0.40569755  0.09247515     0.98700
C21         C  0.41228432  0.40547981  0.09227595     0.99400
N22         N  0.04818782  0.07551227  0.45118318    -0.05800
N23         N  0.07543788  0.10382171  0.44302930    -0.62100
N24         N  0.45669835  0.04661310  0.42236065    -0.04600
N25         N  0.42943332  0.05474169  0.39406293    -0.62800
N26         N  0.45661503  0.07532992  0.45109958    -0.05300
N27         N  0.42928342  0.10353837  0.44292444    -0.62300
N28         N  0.04827498  0.04675632  0.42248115    -0.04200
N29         N  0.07559663  0.05493500  0.39425753    -0.63000
Mn30       Mn  0.50234379  0.07653012  0.49994065     1.10700
C31         C  0.09261341  0.09040862  0.40764702     0.99900
C32         C  0.41225607  0.09012619  0.40747040     1.00000
N33         N  0.45684317  0.42028986  0.45115310    -0.05300
N34         N  0.42957463  0.39200751  0.44298412    -0.60700
N35         N  0.04840299  0.44915302  0.42252468    -0.04600
N36         N  0.07573472  0.44103442  0.39429725    -0.57400
N37         N  0.04840989  0.42042488  0.45125330    -0.05900
N38         N  0.07574805  0.39220443  0.44312340    -0.60200
N39         N  0.45683759  0.44901725  0.42242334    -0.04900
N40         N  0.42956365  0.44083987  0.39415483    -0.57400
Mn41       Mn  0.00257189  0.41927931  0.00000386     1.20200
Mn42       Mn  0.00255632  0.49788199  0.42135590     1.10100
Cl43       Cl  0.00246657  0.99790650  0.99997212    -0.85400
C44         C  0.41248971  0.40540123  0.40755144     0.96900
C45         C  0.09287219  0.40564051  0.40772361     0.96700
C46         C  0.12175719  0.11546068  0.38261563     0.87100
C47         C  0.11754652  0.10926299  0.33565237    -0.53200
C48         C  0.14390356  0.13203697  0.31311487     0.10000
C49         C  0.17193801  0.15894226  0.33909420     0.20900
C50         C  0.16571794  0.10580019  0.39214034    -0.53900
C51         C  0.19179791  0.12869856  0.36923180     0.10100
C52         C  0.11767693  0.16242413  0.38892715    -0.53400
C53         C  0.14402839  0.18493921  0.36611919     0.10700
H54         H  0.09559806  0.08904195  0.32146804     0.15200
H55         H  0.19335231  0.17749311  0.32052691     0.00900
H56         H  0.17525622  0.08309600  0.41477892     0.15500
H57         H  0.09580394  0.17662561  0.40922189     0.15300
C58         C  0.12198957  0.38059953  0.38266288     0.87100
C59         C  0.11781390  0.33363889  0.38890647    -0.53200
C60         C  0.14413207  0.31110044  0.36609092     0.10000
C61         C  0.17210119  0.33707572  0.33910727     0.20900
C62         C  0.16596306  0.39016096  0.39222417    -0.53900
C63         C  0.19200577  0.36724363  0.36929034     0.10100
C64         C  0.11781245  0.38687470  0.33570821    -0.53400
C65         C  0.14413088  0.36407479  0.31315393     0.10700
H66         H  0.09591217  0.31945426  0.40918120     0.15200
H67         H  0.19348679  0.31850595  0.32052517     0.00900
H68         H  0.17553583  0.41281710  0.41489645     0.15500
H69         H  0.09590852  0.40715606  0.32153885     0.15300
C70         C  0.12179928  0.38067218  0.11752983     0.87100
C71         C  0.11768877  0.38695463  0.16449060    -0.53200
C72         C  0.14403121  0.36413661  0.18700322     0.10000
C73         C  0.17195629  0.33712874  0.16100636     0.20900
C74         C  0.16576209  0.39021512  0.10790042    -0.53900
C75         C  0.19182898  0.36729381  0.13079700     0.10200
C76         C  0.11759704  0.33371136  0.11129825    -0.53400
C77         C  0.14393832  0.31116234  0.13407007     0.10700
H78         H  0.09580946  0.40724304  0.17869074     0.15200
H79         H  0.19336166  0.31855145  0.17955542     0.00900
H80         H  0.17531109  0.41287411  0.08522003     0.15500
H81         H  0.09565861  0.31953365  0.09106167     0.15300
C82         C  0.12154659  0.11551768  0.11747765     0.87100
C83         C  0.11741083  0.16248571  0.11123869    -0.53200
C84         C  0.14379336  0.18499646  0.13401269     0.10000
C85         C  0.17177779  0.15899023  0.16094344     0.20900
C86         C  0.16549533  0.10591189  0.10784286    -0.53900
C87         C  0.19160206  0.12879896  0.13072640     0.10100
C88         C  0.11743576  0.10925327  0.16444258    -0.53400
C89         C  0.14381482  0.13203196  0.18695089     0.10700
H90         H  0.09548957  0.17669032  0.09100291     0.15200
H91         H  0.19321440  0.17753712  0.17948639     0.00900
H92         H  0.17500713  0.08324065  0.08515864     0.15500
H93         H  0.09552648  0.08900213  0.17864910     0.15300
C94         C  0.38315584  0.11518022  0.38240416     0.87100
C95         C  0.38739070  0.16213861  0.38864129    -0.53200
C96         C  0.36107016  0.18470953  0.36586349     0.10000
C97         C  0.33303790  0.15876477  0.33892065     0.20900
C98         C  0.33918733  0.10567002  0.39202322    -0.53900
C99         C  0.31313764  0.12860978  0.36912833     0.10100
C100        C  0.38727473  0.10890068  0.33544313    -0.53400
C101        C  0.36095677  0.13174464  0.31292448     0.10700
H102        H  0.40933245  0.17629757  0.40888731     0.15200
H103        H  0.31164837  0.17735950  0.32036993     0.00900
H104        H  0.32962040  0.08301883  0.41470328     0.15500
H105        H  0.40914718  0.08860119  0.32124733     0.15300
C106        C  0.38294433  0.11526808  0.11724612     0.87100
C107        C  0.38713155  0.10899265  0.16419955    -0.53200
C108        C  0.36084416  0.13182036  0.18676372     0.10000
C109        C  0.33288243  0.15883868  0.16081662     0.20900
C110        C  0.33896234  0.10574897  0.10769722    -0.53900
C111        C  0.31294245  0.12868724  0.13063453     0.10100
C112        C  0.38716042  0.16222748  0.11099998    -0.53400
C113        C  0.36086832  0.18479035  0.13382805     0.10700
H114        H  0.40902614  0.08869600  0.17836214     0.15200
H115        H  0.31151773  0.17742713  0.17940544     0.00900
H116        H  0.32936586  0.08309952  0.08502901     0.15500
H117        H  0.40906986  0.17639120  0.09071964     0.15300
C118        C  0.38317768  0.38043559  0.11733675     0.87100
C119        C  0.38726869  0.33347706  0.11102356    -0.53200
C120        C  0.36094662  0.31095459  0.13385382     0.10000
C121        C  0.33304361  0.33694600  0.16089729     0.20900
C122        C  0.33921628  0.39008969  0.10784452    -0.53900
C123        C  0.31315845  0.36719061  0.13077069     0.10100
C124        C  0.38742598  0.38664048  0.16429538    -0.53400
C125        C  0.36109334  0.36385865  0.18685461     0.10700
H126        H  0.40913261  0.31928149  0.09071407     0.15200
H127        H  0.31164592  0.31839068  0.17948008     0.00900
H128        H  0.32965943  0.41278960  0.08520963     0.15500
H129        H  0.40938117  0.40686799  0.17845991     0.15300
C130        C  0.38336719  0.38036095  0.38250805     0.87100
C131        C  0.38752324  0.38662711  0.33554901    -0.53200
C132        C  0.36117135  0.36384300  0.31301602     0.10000
C133        C  0.33318698  0.33688065  0.33899736     0.20900
C134        C  0.33941669  0.38996370  0.39210257    -0.53900
C135        C  0.31333449  0.36707623  0.36919781     0.10100
C136        C  0.38750962  0.33339652  0.38875427    -0.53400
C137        C  0.36115847  0.31087871  0.36595229     0.10700
H138        H  0.40944128  0.40688331  0.32136394     0.15200
H139        H  0.31176905  0.31833109  0.32043454     0.00900
H140        H  0.32988391  0.41263737  0.41477563     0.15500
H141        H  0.40942143  0.31919779  0.40900502     0.15300
C142        C  0.36044091  0.36440104  0.26854280    -0.12700
C143        C  0.36041894  0.36440157  0.23132931    -0.14300
C144        C  0.36018247  0.22926598  0.13327483    -0.12700
C145        C  0.36019693  0.26648081  0.13328367    -0.14300
C146        C  0.36020418  0.13120807  0.26845109    -0.12700
C147        C  0.36016163  0.13124211  0.23123761    -0.14300
C148        C  0.36039741  0.22918647  0.36643886    -0.12700
C149        C  0.36042545  0.26640223  0.36647332    -0.14300
C150        C  0.23429293  0.12533046  0.12724289    -0.12700
C151        C  0.27023964  0.12530260  0.12722207    -0.14300
C152        C  0.14462755  0.26668662  0.13350172    -0.12700
C153        C  0.14457055  0.22947139  0.13347102    -0.14300
C154        C  0.27046690  0.37067577  0.12736400    -0.12700
C155        C  0.23452257  0.37071525  0.12735194    -0.14300
C156        C  0.14484576  0.36466872  0.26868387    -0.12700
C157        C  0.14480909  0.36469651  0.23147239    -0.14300
C158        C  0.27064749  0.37056871  0.37265708    -0.12700
C159        C  0.23470337  0.37063954  0.37270173    -0.14300
C160        C  0.14458669  0.13148032  0.23142514    -0.12700
C161        C  0.14461402  0.13148944  0.26863949    -0.14300
C162        C  0.23449362  0.12521984  0.37263771    -0.12700
C163        C  0.27044028  0.12520902  0.37259827    -0.14300
C164        C  0.14485109  0.26662680  0.36666472    -0.12700
C165        C  0.14481359  0.22941239  0.36668685    -0.14300
N166        N  0.45649189  0.07537817  0.54866551    -0.05500
N167        N  0.42915286  0.10360218  0.55677636    -0.57700
N168        N  0.04807097  0.04682788  0.57755558    -0.05200
N169        N  0.07531975  0.05503371  0.60584633    -0.59800
N170        N  0.04806895  0.07554765  0.54881703    -0.04800
N171        N  0.07531783  0.10384915  0.55700122    -0.57600
N172        N  0.45649747  0.04666390  0.57740598    -0.04500
N173        N  0.42916254  0.05479754  0.60562656    -0.60100
C174        C  0.41202652  0.09018690  0.59218100     0.96600
C175        C  0.09238727  0.09048000  0.59245348     0.96400
N176        N  0.04829421  0.42047387  0.54885277    -0.05700
N177        N  0.07563117  0.39227069  0.55702989    -0.58200
N178        N  0.45664287  0.44909470  0.57744042    -0.03800
N179        N  0.42930719  0.44094959  0.60565431    -0.59500
N180        N  0.45673036  0.42032550  0.54875327    -0.05800
N181        N  0.42946495  0.39203535  0.55690896    -0.58500
N182        N  0.04821156  0.44919887  0.57758594    -0.03500
N183        N  0.07548451  0.44108147  0.60587823    -0.59600
Mn184      Mn  0.50235796  0.99794525  0.57858837     1.18400
C185        C  0.09266603  0.40569758  0.59247514     0.98700
C186        C  0.41228430  0.40547981  0.59227595     0.99400
N187        N  0.04818773  0.07551229  0.95118304    -0.05800
N188        N  0.07543782  0.10382171  0.94302921    -0.62100
N189        N  0.45669838  0.04661312  0.92236063    -0.04600
N190        N  0.42943340  0.05474176  0.89406283    -0.62800
N191        N  0.45661500  0.07532989  0.95109955    -0.05300
N192        N  0.42928335  0.10353833  0.94292446    -0.62300
N193        N  0.04827496  0.04675630  0.92248105    -0.04200
N194        N  0.07559671  0.05493492  0.89425750    -0.63000
Mn195      Mn  0.50234375  0.07653013  0.99994057     1.10700
C196        C  0.09261343  0.09040858  0.90764699     0.99900
C197        C  0.41225610  0.09012620  0.90747037     1.00000
N198        N  0.45684315  0.42028986  0.95115317    -0.05300
N199        N  0.42957468  0.39200746  0.94298420    -0.60700
N200        N  0.04840293  0.44915298  0.92252474    -0.04600
N201        N  0.07573465  0.44103442  0.89429733    -0.57400
N202        N  0.04840984  0.42042478  0.95125333    -0.05900
N203        N  0.07574799  0.39220437  0.94312340    -0.60200
N204        N  0.45683758  0.44901726  0.92242342    -0.04900
N205        N  0.42956367  0.44083980  0.89415487    -0.57400
Mn206      Mn  0.00257187  0.41927932  0.50000384     1.20200
Mn207      Mn  0.00255633  0.49788195  0.92135594     1.10100
Cl208      Cl  0.00246646  0.99790649  0.49997211    -0.85400
C209        C  0.41248978  0.40540116  0.90755149     0.96900
C210        C  0.09287214  0.40564051  0.90772363     0.96700
C211        C  0.12175723  0.11546068  0.88261565     0.87100
C212        C  0.11754661  0.10926301  0.83565242    -0.53200
C213        C  0.14390358  0.13203697  0.81311486     0.10000
C214        C  0.17193798  0.15894227  0.83909420     0.20900
C215        C  0.16571799  0.10580019  0.89214042    -0.53900
C216        C  0.19179791  0.12869862  0.86923180     0.10100
C217        C  0.11767696  0.16242414  0.88892709    -0.53400
C218        C  0.14402836  0.18493924  0.86611912     0.10700
H219        H  0.09559806  0.08904184  0.82146808     0.15200
H220        H  0.19335231  0.17749317  0.82052686     0.00900
H221        H  0.17525629  0.08309605  0.91477889     0.15500
H222        H  0.09580397  0.17662568  0.90922194     0.15300
C223        C  0.12198955  0.38059958  0.88266288     0.87100
C224        C  0.11781393  0.33363897  0.88890653    -0.53200
C225        C  0.14413202  0.31110048  0.86609092     0.10000
C226        C  0.17210115  0.33707575  0.83910728     0.20900
C227        C  0.16596305  0.39016100  0.89222419    -0.53900
C228        C  0.19200574  0.36724364  0.86929036     0.10100
C229        C  0.11781240  0.38687477  0.83570815    -0.53400
C230        C  0.14413092  0.36407482  0.81315392     0.10700
H231        H  0.09591229  0.31945436  0.90918138     0.15200
H232        H  0.19348674  0.31850592  0.82052516     0.00900
H233        H  0.17553587  0.41281705  0.91489647     0.15500
H234        H  0.09590857  0.40715600  0.82153877     0.15300
C235        C  0.12179934  0.38067224  0.61752983     0.87100
C236        C  0.11768881  0.38695464  0.66449059    -0.53200
C237        C  0.14403115  0.36413659  0.68700325     0.10000
C238        C  0.17195627  0.33712873  0.66100642     0.20900
C239        C  0.16576219  0.39021519  0.60790048    -0.53900
C240        C  0.19182902  0.36729383  0.63079711     0.10200
C241        C  0.11759715  0.33371143  0.61129819    -0.53400
C242        C  0.14393835  0.31116236  0.63407003     0.10700
H243        H  0.09580946  0.40724314  0.67869073     0.15200
H244        H  0.19336160  0.31855143  0.67955553     0.00900
H245        H  0.17531125  0.41287415  0.58522014     0.15500
H246        H  0.09565874  0.31953375  0.59106152     0.15300
C247        C  0.12154655  0.11551773  0.61747763     0.87100
C248        C  0.11741080  0.16248579  0.61123864    -0.53200
C249        C  0.14379338  0.18499649  0.63401269     0.10000
C250        C  0.17177775  0.15899021  0.66094340     0.20900
C251        C  0.16549528  0.10591191  0.60784275    -0.53900
C252        C  0.19160202  0.12879894  0.63072636     0.10100
C253        C  0.11743578  0.10925332  0.66444254    -0.53400
C254        C  0.14381481  0.13203199  0.68695088     0.10700
H255        H  0.09548961  0.17669040  0.59100292     0.15200
H256        H  0.19321439  0.17753710  0.67948642     0.00900
H257        H  0.17500704  0.08324079  0.58515853     0.15500
H258        H  0.09552651  0.08900207  0.67864910     0.15300
C259        C  0.38315585  0.11518024  0.88240418     0.87100
C260        C  0.38739071  0.16213862  0.88864135    -0.53200
C261        C  0.36107010  0.18470952  0.86586355     0.10000
C262        C  0.33303786  0.15876473  0.83892076     0.20900
C263        C  0.33918735  0.10567001  0.89202331    -0.53900
C264        C  0.31313764  0.12860977  0.86912845     0.10100
C265        C  0.38727475  0.10890073  0.83544317    -0.53400
C266        C  0.36095671  0.13174465  0.81292456     0.10700
H267        H  0.40933249  0.17629753  0.90888730     0.15200
H268        H  0.31164829  0.17735945  0.82037007     0.00900
H269        H  0.32962046  0.08301882  0.91470339     0.15500
H270        H  0.40914722  0.08860133  0.82124734     0.15300
C271        C  0.38294429  0.11526807  0.61724612     0.87100
C272        C  0.38713153  0.10899264  0.66419956    -0.53200
C273        C  0.36084416  0.13182034  0.68676377     0.10000
C274        C  0.33288237  0.15883865  0.66081669     0.20900
C275        C  0.33896228  0.10574895  0.60769725    -0.53900
C276        C  0.31294240  0.12868722  0.63063457     0.10100
C277        C  0.38716030  0.16222745  0.61100006    -0.53400
C278        C  0.36086825  0.18479034  0.63382810     0.10700
H279        H  0.40902608  0.08869588  0.67836210     0.15200
H280        H  0.31151769  0.17742708  0.67940553     0.00900
H281        H  0.32936580  0.08309956  0.58502903     0.15500
H282        H  0.40906986  0.17639123  0.59071965     0.15300
C283        C  0.38317770  0.38043555  0.61733670     0.87100
C284        C  0.38726870  0.33347701  0.61102348    -0.53200
C285        C  0.36094670  0.31095457  0.63385388     0.10000
C286        C  0.33304367  0.33694601  0.66089731     0.20900
C287        C  0.33921633  0.39008970  0.60784453    -0.53900
C288        C  0.31315850  0.36719059  0.63077067     0.10100
C289        C  0.38742605  0.38664048  0.66429533    -0.53400
C290        C  0.36109339  0.36385869  0.68685459     0.10700
H291        H  0.40913249  0.31928142  0.59071394     0.15200
H292        H  0.31164599  0.31839071  0.67948012     0.00900
H293        H  0.32965949  0.41278971  0.58520971     0.15500
H294        H  0.40938124  0.40686796  0.67845981     0.15300
C295        C  0.38336723  0.38036091  0.88250806     0.87100
C296        C  0.38752319  0.38662715  0.83554905    -0.53200
C297        C  0.36117134  0.36384310  0.81301600     0.10000
C298        C  0.33318700  0.33688072  0.83899733     0.20900
C299        C  0.33941672  0.38996370  0.89210264    -0.53900
C300        C  0.31333449  0.36707625  0.86919782     0.10100
C301        C  0.38750972  0.33339648  0.88875416    -0.53400
C302        C  0.36115854  0.31087872  0.86595213     0.10700
H303        H  0.40944133  0.40688342  0.82136397     0.15200
H304        H  0.31176906  0.31833110  0.82043447     0.00900
H305        H  0.32988399  0.41263731  0.91477566     0.15500
H306        H  0.40942153  0.31919773  0.90900490     0.15300
C307        C  0.36044101  0.36440105  0.76854279    -0.12700
C308        C  0.36041908  0.36440160  0.73132930    -0.14300
C309        C  0.36018241  0.22926596  0.63327491    -0.12700
C310        C  0.36019701  0.26648078  0.63328378    -0.14300
C311        C  0.36020405  0.13120801  0.76845118    -0.12700
C312        C  0.36016152  0.13124195  0.73123769    -0.14300
C313        C  0.36039733  0.22918647  0.86643876    -0.12700
C314        C  0.36042540  0.26640223  0.86647313    -0.14300
C315        C  0.23429288  0.12533049  0.62724273    -0.12700
C316        C  0.27023959  0.12530265  0.62722193    -0.14300
C317        C  0.14462755  0.26668663  0.63350165    -0.12700
C318        C  0.14457062  0.22947140  0.63347103    -0.14300
C319        C  0.27046694  0.37067579  0.62736405    -0.12700
C320        C  0.23452261  0.37071526  0.62735206    -0.14300
C321        C  0.14484584  0.36466876  0.76868387    -0.12700
C322        C  0.14480902  0.36469652  0.73147240    -0.14300
C323        C  0.27064747  0.37056873  0.87265713    -0.12700
C324        C  0.23470333  0.37063954  0.87270179    -0.14300
C325        C  0.14458678  0.13148032  0.73142515    -0.12700
C326        C  0.14461412  0.13148943  0.76863951    -0.14300
C327        C  0.23449362  0.12521985  0.87263762    -0.12700
C328        C  0.27044028  0.12520902  0.87259832    -0.14300
C329        C  0.14485104  0.26662683  0.86666480    -0.12700
C330        C  0.14481365  0.22941241  0.86668689    -0.14300
N331        N  0.45649188  0.57537822  0.04866550    -0.05500
N332        N  0.42915285  0.60360221  0.05677639    -0.57700
N333        N  0.04807102  0.54682786  0.07755554    -0.05200
N334        N  0.07531972  0.55503374  0.10584638    -0.59800
N335        N  0.04806904  0.57554754  0.04881695    -0.04800
N336        N  0.07531798  0.60384905  0.05700115    -0.57600
N337        N  0.45649748  0.54666391  0.07740593    -0.04500
N338        N  0.42916254  0.55479749  0.10562654    -0.60100
C339        C  0.41202653  0.59018687  0.09218102     0.96600
C340        C  0.09238733  0.59047994  0.09245345     0.96400
N341        N  0.04829422  0.92047387  0.04885280    -0.05700
N342        N  0.07563115  0.89227070  0.05702989    -0.58200
N343        N  0.45664279  0.94909474  0.07744030    -0.03800
N344        N  0.42930715  0.94094960  0.10565423    -0.59500
N345        N  0.45673027  0.92032554  0.04875317    -0.05800
N346        N  0.42946489  0.89203534  0.05690890    -0.58500
N347        N  0.04821154  0.94919887  0.07758599    -0.03500
N348        N  0.07548458  0.94108149  0.10587823    -0.59600
Mn349      Mn  0.50235797  0.49794521  0.07858834     1.18400
C350        C  0.09266604  0.90569758  0.09247515     0.98700
C351        C  0.41228431  0.90547978  0.09227593     0.99400
N352        N  0.04818787  0.57551224  0.45118320    -0.05800
N353        N  0.07543789  0.60382170  0.44302929    -0.62100
N354        N  0.45669835  0.54661308  0.42236067    -0.04600
N355        N  0.42943334  0.55474169  0.39406296    -0.62800
N356        N  0.45661505  0.57532992  0.45109960    -0.05300
N357        N  0.42928347  0.60353840  0.44292444    -0.62300
N358        N  0.04827504  0.54675626  0.42248117    -0.04200
N359        N  0.07559668  0.55493498  0.39425754    -0.63000
Mn360      Mn  0.50234379  0.57653009  0.49994067     1.10700
C361        C  0.09261342  0.59040863  0.40764701     0.99900
C362        C  0.41225611  0.59012620  0.40747041     1.00000
N363        N  0.45684311  0.92028988  0.45115315    -0.05300
N364        N  0.42957461  0.89200751  0.44298415    -0.60700
N365        N  0.04840303  0.94915304  0.42252468    -0.04600
N366        N  0.07573478  0.94103445  0.39429731    -0.57400
N367        N  0.04840988  0.92042481  0.45125328    -0.05900
N368        N  0.07574797  0.89220437  0.44312335    -0.60200
N369        N  0.45683756  0.94901725  0.42242336    -0.04900
N370        N  0.42956371  0.94083977  0.39415476    -0.57400
Mn371      Mn  0.00257192  0.91927934  0.00000387     1.20200
Mn372      Mn  0.00255635  0.99788199  0.42135591     1.10100
Cl373      Cl  0.00246653  0.49790647  0.99997212    -0.85400
C374        C  0.41248975  0.90540118  0.40755140     0.96900
C375        C  0.09287221  0.90564051  0.40772362     0.96700
C376        C  0.12175719  0.61546070  0.38261563     0.87100
C377        C  0.11754652  0.60926307  0.33565239    -0.53200
C378        C  0.14390352  0.63203702  0.31311487     0.10000
C379        C  0.17193802  0.65894229  0.33909419     0.20900
C380        C  0.16571794  0.60580021  0.39214033    -0.53900
C381        C  0.19179792  0.62869857  0.36923177     0.10100
C382        C  0.11767696  0.66242417  0.38892715    -0.53400
C383        C  0.14402843  0.68493924  0.36611922     0.10700
H384        H  0.09559800  0.58904194  0.32146802     0.15200
H385        H  0.19335230  0.67749310  0.32052688     0.00900
H386        H  0.17525620  0.58309604  0.41477892     0.15500
H387        H  0.09580397  0.67662566  0.40922191     0.15300
C388        C  0.12198956  0.88059954  0.38266288     0.87100
C389        C  0.11781386  0.83363893  0.38890649    -0.53200
C390        C  0.14413194  0.81110045  0.36609089     0.10000
C391        C  0.17210113  0.83707570  0.33910727     0.20900
C392        C  0.16596308  0.89016095  0.39222417    -0.53900
C393        C  0.19200575  0.86724356  0.36929038     0.10100
C394        C  0.11781238  0.88687473  0.33570819    -0.53400
C395        C  0.14413088  0.86407482  0.31315393     0.10700
H396        H  0.09591215  0.81945433  0.40918129     0.15200
H397        H  0.19348670  0.81850589  0.32052517     0.00900
H398        H  0.17553588  0.91281709  0.41489636     0.15500
H399        H  0.09590846  0.90715599  0.32153888     0.15300
C400        C  0.12179933  0.88067221  0.11752982     0.87100
C401        C  0.11768882  0.88695464  0.16449057    -0.53200
C402        C  0.14403121  0.86413665  0.18700322     0.10000
C403        C  0.17195633  0.83712875  0.16100639     0.20900
C404        C  0.16576216  0.89021515  0.10790042    -0.53900
C405        C  0.19182903  0.86729383  0.13079701     0.10200
C406        C  0.11759711  0.83371142  0.11129828    -0.53400
C407        C  0.14393832  0.81116237  0.13407007     0.10700
H408        H  0.09580942  0.90724304  0.17869072     0.15200
H409        H  0.19336169  0.81855148  0.17955543     0.00900
H410        H  0.17531116  0.91287414  0.08522003     0.15500
H411        H  0.09565855  0.81953371  0.09106168     0.15300
C412        C  0.12154659  0.61551770  0.11747764     0.87100
C413        C  0.11741077  0.66248574  0.11123871    -0.53200
C414        C  0.14379335  0.68499649  0.13401266     0.10000
C415        C  0.17177777  0.65899027  0.16094342     0.20900
C416        C  0.16549536  0.60591194  0.10784285    -0.53900
C417        C  0.19160208  0.62879899  0.13072641     0.10100
C418        C  0.11743576  0.60925329  0.16444256    -0.53400
C419        C  0.14381479  0.63203201  0.18695088     0.10700
H420        H  0.09548945  0.67669034  0.09100304     0.15200
H421        H  0.19321437  0.67753715  0.17948639     0.00900
H422        H  0.17500718  0.58324070  0.08515865     0.15500
H423        H  0.09552651  0.58900209  0.17864907     0.15300
C424        C  0.38315586  0.61518018  0.38240418     0.87100
C425        C  0.38739071  0.66213853  0.38864132    -0.53200
C426        C  0.36107022  0.68470948  0.36586352     0.10000
C427        C  0.33303797  0.65876473  0.33892069     0.20900
C428        C  0.33918734  0.60566990  0.39202324    -0.53900
C429        C  0.31313769  0.62860973  0.36912833     0.10100
C430        C  0.38727480  0.60890068  0.33544316    -0.53400
C431        C  0.36095684  0.63174466  0.31292450     0.10700
H432        H  0.40933253  0.67629749  0.40888738     0.15200
H433        H  0.31164845  0.67735950  0.32036998     0.00900
H434        H  0.32962043  0.58301872  0.41470319     0.15500
H435        H  0.40914726  0.58860121  0.32124738     0.15300
C436        C  0.38294431  0.61526806  0.11724612     0.87100
C437        C  0.38713158  0.60899267  0.16419956    -0.53200
C438        C  0.36084416  0.63182036  0.18676373     0.10000
C439        C  0.33288241  0.65883868  0.16081664     0.20900
C440        C  0.33896233  0.60574894  0.10769725    -0.53900
C441        C  0.31294245  0.62868724  0.13063455     0.10100
C442        C  0.38716029  0.66222743  0.11099997    -0.53400
C443        C  0.36086826  0.68479035  0.13382802     0.10700
H444        H  0.40902616  0.58869600  0.17836213     0.15200
H445        H  0.31151770  0.67742711  0.17940548     0.00900
H446        H  0.32936586  0.58309953  0.08502900     0.15500
H447        H  0.40906981  0.67639118  0.09071953     0.15300
C448        C  0.38317773  0.88043555  0.11733673     0.87100
C449        C  0.38726876  0.83347701  0.11102355    -0.53200
C450        C  0.36094666  0.81095457  0.13385383     0.10000
C451        C  0.33304366  0.83694601  0.16089728     0.20900
C452        C  0.33921635  0.89008969  0.10784452    -0.53900
C453        C  0.31315851  0.86719063  0.13077069     0.10100
C454        C  0.38742604  0.88664048  0.16429535    -0.53400
C455        C  0.36109340  0.86385867  0.18685457     0.10700
H456        H  0.40913263  0.81928140  0.09071410     0.15200
H457        H  0.31164597  0.81839073  0.17948009     0.00900
H458        H  0.32965951  0.91278961  0.08520964     0.15500
H459        H  0.40938122  0.90686800  0.17845987     0.15300
C460        C  0.38336722  0.88036094  0.38250800     0.87100
C461        C  0.38752316  0.88662716  0.33554898    -0.53200
C462        C  0.36117134  0.86384304  0.31301597     0.10000
C463        C  0.33318698  0.83688067  0.33899733     0.20900
C464        C  0.33941673  0.88996368  0.39210258    -0.53900
C465        C  0.31333451  0.86707624  0.36919781     0.10100
C466        C  0.38750965  0.83339651  0.38875412    -0.53400
C467        C  0.36115847  0.81087869  0.36595221     0.10700
H468        H  0.40944122  0.90688348  0.32136387     0.15200
H469        H  0.31176901  0.81833112  0.32043450     0.00900
H470        H  0.32988397  0.91263737  0.41477565     0.15500
H471        H  0.40942157  0.81919775  0.40900486     0.15300
C472        C  0.36044095  0.86440106  0.26854274    -0.12700
C473        C  0.36041900  0.86440161  0.23132926    -0.14300
C474        C  0.36018248  0.72926597  0.13327483    -0.12700
C475        C  0.36019697  0.76648079  0.13328369    -0.14300
C476        C  0.36020417  0.63120802  0.26845111    -0.12700
C477        C  0.36016151  0.63124194  0.23123762    -0.14300
C478        C  0.36039742  0.72918642  0.36643889    -0.12700
C479        C  0.36042534  0.76640219  0.36647333    -0.14300
C480        C  0.23429296  0.62533049  0.12724290    -0.12700
C481        C  0.27023967  0.62530262  0.12722207    -0.14300
C482        C  0.14462745  0.76668664  0.13350175    -0.12700
C483        C  0.14457052  0.72947142  0.13347102    -0.14300
C484        C  0.27046696  0.87067580  0.12736400    -0.12700
C485        C  0.23452262  0.87071528  0.12735194    -0.14300
C486        C  0.14484574  0.86466876  0.26868388    -0.12700
C487        C  0.14480898  0.86469652  0.23147239    -0.14300
C488        C  0.27064750  0.87056874  0.37265708    -0.12700
C489        C  0.23470337  0.87063952  0.37270172    -0.14300
C490        C  0.14458669  0.63148034  0.23142514    -0.12700
C491        C  0.14461403  0.63148946  0.26863949    -0.14300
C492        C  0.23449366  0.62521987  0.37263771    -0.12700
C493        C  0.27044032  0.62520904  0.37259828    -0.14300
C494        C  0.14485093  0.76662682  0.36666470    -0.12700
C495        C  0.14481359  0.72941241  0.36668685    -0.14300
N496        N  0.45649192  0.57537804  0.54866554    -0.05500
N497        N  0.42915296  0.60360212  0.55677641    -0.57700
N498        N  0.04807106  0.54682785  0.57755556    -0.05200
N499        N  0.07531981  0.55503371  0.60584636    -0.59800
N500        N  0.04806902  0.57554757  0.54881701    -0.04800
N501        N  0.07531789  0.60384912  0.55700120    -0.57600
N502        N  0.45649739  0.54666374  0.57740595    -0.04500
N503        N  0.42916240  0.55479738  0.60562651    -0.60100
C504        C  0.41202654  0.59018684  0.59218100     0.96600
C505        C  0.09238730  0.59047998  0.59245347     0.96400
N506        N  0.04829415  0.92047389  0.54885279    -0.05700
N507        N  0.07563107  0.89227072  0.55702991    -0.58200
N508        N  0.45664293  0.94909469  0.57744044    -0.03800
N509        N  0.42930728  0.94094953  0.60565435    -0.59500
N510        N  0.45673040  0.92032551  0.54875327    -0.05800
N511        N  0.42946499  0.89203535  0.55690893    -0.58500
N512        N  0.04821144  0.94919890  0.57758596    -0.03500
N513        N  0.07548446  0.94108152  0.60587822    -0.59600
Mn514      Mn  0.50235792  0.49794519  0.57858838     1.18400
C515        C  0.09266598  0.90569763  0.59247514     0.98700
C516        C  0.41228436  0.90547978  0.59227595     0.99400
N517        N  0.04818774  0.57551220  0.95118308    -0.05800
N518        N  0.07543774  0.60382170  0.94302919    -0.62100
N519        N  0.45669835  0.54661314  0.92236061    -0.04600
N520        N  0.42943327  0.55474173  0.89406288    -0.62800
N521        N  0.45661503  0.57532995  0.95109950    -0.05300
N522        N  0.42928335  0.60353838  0.94292445    -0.62300
N523        N  0.04827499  0.54675624  0.92248107    -0.04200
N524        N  0.07559664  0.55493495  0.89425745    -0.63000
Mn525      Mn  0.50234381  0.57653012  0.99994056     1.10700
C526        C  0.09261333  0.59040862  0.90764695     0.99900
C527        C  0.41225600  0.59012618  0.90747042     1.00000
N528        N  0.45684319  0.92028986  0.95115315    -0.05300
N529        N  0.42957468  0.89200750  0.94298420    -0.60700
N530        N  0.04840293  0.94915301  0.92252474    -0.04600
N531        N  0.07573466  0.94103445  0.89429733    -0.57400
N532        N  0.04840987  0.92042482  0.95125334    -0.05900
N533        N  0.07574803  0.89220441  0.94312341    -0.60200
N534        N  0.45683762  0.94901726  0.92242339    -0.04900
N535        N  0.42956366  0.94083983  0.89415487    -0.57400
Mn536      Mn  0.00257186  0.91927935  0.50000385     1.20200
Mn537      Mn  0.00255629  0.99788198  0.92135594     1.10100
Cl538      Cl  0.00246644  0.49790646  0.49997211    -0.85400
C539        C  0.41248973  0.90540121  0.90755152     0.96900
C540        C  0.09287217  0.90564054  0.90772364     0.96700
C541        C  0.12175718  0.61546069  0.88261563     0.87100
C542        C  0.11754662  0.60926302  0.83565240    -0.53200
C543        C  0.14390362  0.63203699  0.81311488     0.10000
C544        C  0.17193798  0.65894228  0.83909426     0.20900
C545        C  0.16571793  0.60580016  0.89214041    -0.53900
C546        C  0.19179788  0.62869859  0.86923183     0.10100
C547        C  0.11767684  0.66242416  0.88892711    -0.53400
C548        C  0.14402832  0.68493924  0.86611914     0.10700
H549        H  0.09559810  0.58904186  0.82146804     0.15200
H550        H  0.19335233  0.67749319  0.82052695     0.00900
H551        H  0.17525619  0.58309596  0.91477886     0.15500
H552        H  0.09580386  0.67662563  0.90922175     0.15300
C553        C  0.12198954  0.88059957  0.88266286     0.87100
C554        C  0.11781380  0.83363891  0.88890646    -0.53200
C555        C  0.14413195  0.81110045  0.86609082     0.10000
C556        C  0.17210111  0.83707571  0.83910722     0.20900
C557        C  0.16596305  0.89016093  0.89222418    -0.53900
C558        C  0.19200573  0.86724354  0.86929037     0.10100
C559        C  0.11781238  0.88687481  0.83570816    -0.53400
C560        C  0.14413084  0.86407484  0.81315391     0.10700
H561        H  0.09591225  0.81945434  0.90918120     0.15200
H562        H  0.19348668  0.81850594  0.82052508     0.00900
H563        H  0.17553587  0.91281701  0.91489639     0.15500
H564        H  0.09590855  0.90715611  0.82153882     0.15300
C565        C  0.12179929  0.88067227  0.61752983     0.87100
C566        C  0.11768882  0.88695468  0.66449060    -0.53200
C567        C  0.14403118  0.86413665  0.68700325     0.10000
C568        C  0.17195623  0.83712874  0.66100640     0.20900
C569        C  0.16576214  0.89021518  0.60790046    -0.53900
C570        C  0.19182898  0.86729383  0.63079708     0.10200
C571        C  0.11759701  0.83371144  0.61129821    -0.53400
C572        C  0.14393824  0.81116237  0.63407006     0.10700
H573        H  0.09580950  0.90724321  0.67869076     0.15200
H574        H  0.19336156  0.81855143  0.67955547     0.00900
H575        H  0.17531120  0.91287416  0.58522014     0.15500
H576        H  0.09565863  0.81953382  0.59106157     0.15300
C577        C  0.12154659  0.61551769  0.61747762     0.87100
C578        C  0.11741085  0.66248573  0.61123866    -0.53200
C579        C  0.14379341  0.68499645  0.63401271     0.10000
C580        C  0.17177777  0.65899012  0.66094342     0.20900
C581        C  0.16549531  0.60591188  0.60784272    -0.53900
C582        C  0.19160203  0.62879891  0.63072635     0.10100
C583        C  0.11743579  0.60925324  0.66444252    -0.53400
C584        C  0.14381483  0.63203186  0.68695088     0.10700
H585        H  0.09548964  0.67669034  0.59100288     0.15200
H586        H  0.19321444  0.67753696  0.67948651     0.00900
H587        H  0.17500706  0.58324079  0.58515846     0.15500
H588        H  0.09552641  0.58900207  0.67864906     0.15300
C589        C  0.38315577  0.61518019  0.88240422     0.87100
C590        C  0.38739069  0.66213858  0.88864136    -0.53200
C591        C  0.36107012  0.68470949  0.86586356     0.10000
C592        C  0.33303784  0.65876476  0.83892077     0.20900
C593        C  0.33918726  0.60566993  0.89202329    -0.53900
C594        C  0.31313760  0.62860977  0.86912843     0.10100
C595        C  0.38727467  0.60890069  0.83544320    -0.53400
C596        C  0.36095670  0.63174466  0.81292457     0.10700
H597        H  0.40933251  0.67629749  0.90888727     0.15200
H598        H  0.31164833  0.67735953  0.82037010     0.00900
H599        H  0.32962031  0.58301871  0.91470322     0.15500
H600        H  0.40914711  0.58860123  0.82124737     0.15300
C601        C  0.38294432  0.61526808  0.61724611     0.87100
C602        C  0.38713157  0.60899267  0.66419955    -0.53200
C603        C  0.36084420  0.63182037  0.68676377     0.10000
C604        C  0.33288241  0.65883868  0.66081669     0.20900
C605        C  0.33896230  0.60574898  0.60769725    -0.53900
C606        C  0.31294242  0.62868725  0.63063457     0.10100
C607        C  0.38716035  0.66222746  0.61100005    -0.53400
C608        C  0.36086829  0.68479036  0.63382810     0.10700
H609        H  0.40902613  0.58869592  0.67836209     0.15200
H610        H  0.31151773  0.67742711  0.67940554     0.00900
H611        H  0.32936580  0.58309960  0.58502904     0.15500
H612        H  0.40906991  0.67639124  0.59071965     0.15300
C613        C  0.38317773  0.88043553  0.61733671     0.87100
C614        C  0.38726871  0.83347699  0.61102351    -0.53200
C615        C  0.36094666  0.81095457  0.63385387     0.10000
C616        C  0.33304365  0.83694600  0.66089731     0.20900
C617        C  0.33921635  0.89008969  0.60784455    -0.53900
C618        C  0.31315849  0.86719059  0.63077065     0.10100
C619        C  0.38742605  0.88664045  0.66429534    -0.53400
C620        C  0.36109340  0.86385869  0.68685459     0.10700
H621        H  0.40913250  0.81928140  0.59071397     0.15200
H622        H  0.31164601  0.81839070  0.67948005     0.00900
H623        H  0.32965955  0.91278973  0.58520974     0.15500
H624        H  0.40938124  0.90686793  0.67845981     0.15300
C625        C  0.38336720  0.88036091  0.88250808     0.87100
C626        C  0.38752322  0.88662700  0.83554907    -0.53200
C627        C  0.36117141  0.86384295  0.81301600     0.10000
C628        C  0.33318701  0.83688067  0.83899734     0.20900
C629        C  0.33941670  0.88996374  0.89210260    -0.53900
C630        C  0.31333449  0.86707627  0.86919778     0.10100
C631        C  0.38750961  0.83339649  0.88875423    -0.53400
C632        C  0.36115851  0.81087867  0.86595217     0.10700
H633        H  0.40944141  0.90688328  0.82136395     0.15200
H634        H  0.31176903  0.81833105  0.82043445     0.00900
H635        H  0.32988394  0.91263735  0.91477561     0.15500
H636        H  0.40942146  0.81919774  0.90900505     0.15300
C637        C  0.36044106  0.86440101  0.76854278    -0.12700
C638        C  0.36041910  0.86440161  0.73132930    -0.14300
C639        C  0.36018241  0.72926597  0.63327490    -0.12700
C640        C  0.36019691  0.76648079  0.63328375    -0.14300
C641        C  0.36020409  0.63120805  0.76845118    -0.12700
C642        C  0.36016158  0.63124198  0.73123769    -0.14300
C643        C  0.36039739  0.72918644  0.86643876    -0.12700
C644        C  0.36042545  0.76640219  0.86647313    -0.14300
C645        C  0.23429288  0.62533051  0.62724272    -0.12700
C646        C  0.27023959  0.62530268  0.62722193    -0.14300
C647        C  0.14462755  0.76668663  0.63350163    -0.12700
C648        C  0.14457068  0.72947139  0.63347103    -0.14300
C649        C  0.27046693  0.87067582  0.62736404    -0.12700
C650        C  0.23452258  0.87071529  0.62735205    -0.14300
C651        C  0.14484569  0.86466878  0.76868387    -0.12700
C652        C  0.14480903  0.86469655  0.73147240    -0.14300
C653        C  0.27064748  0.87056876  0.87265712    -0.12700
C654        C  0.23470335  0.87063951  0.87270178    -0.14300
C655        C  0.14458666  0.63148031  0.73142515    -0.12700
C656        C  0.14461412  0.63148948  0.76863952    -0.14300
C657        C  0.23449358  0.62521985  0.87263765    -0.12700
C658        C  0.27044024  0.62520905  0.87259832    -0.14300
C659        C  0.14485102  0.76662682  0.86666475    -0.12700
C660        C  0.14481354  0.72941240  0.86668688    -0.14300
N661        N  0.95649185  0.07537818  0.04866549    -0.05500
N662        N  0.92915287  0.10360220  0.05677642    -0.57700
N663        N  0.54807093  0.04682787  0.07755553    -0.05200
N664        N  0.57531966  0.05503372  0.10584634    -0.59800
N665        N  0.54806896  0.07554761  0.04881697    -0.04800
N666        N  0.57531785  0.10384911  0.05700119    -0.57600
N667        N  0.95649743  0.04666385  0.07740592    -0.04500
N668        N  0.92916253  0.05479747  0.10562654    -0.60100
C669        C  0.91202654  0.09018687  0.09218104     0.96600
C670        C  0.59238723  0.09047997  0.09245349     0.96400
N671        N  0.54829415  0.42047381  0.04885284    -0.05700
N672        N  0.57563113  0.39227066  0.05702989    -0.58200
N673        N  0.95664285  0.44909471  0.07744030    -0.03800
N674        N  0.92930721  0.44094958  0.10565423    -0.59500
N675        N  0.95673034  0.42032550  0.04875319    -0.05800
N676        N  0.92946495  0.39203531  0.05690891    -0.58500
N677        N  0.54821155  0.44919883  0.07758600    -0.03500
N678        N  0.57548463  0.44108148  0.10587820    -0.59600
Mn679      Mn  0.00235795  0.99794524  0.07858833     1.18400
C680        C  0.59266608  0.40569757  0.09247510     0.98700
C681        C  0.91228434  0.40547978  0.09227593     0.99400
N682        N  0.54818787  0.07551224  0.45118320    -0.05800
N683        N  0.57543792  0.10382171  0.44302930    -0.62100
N684        N  0.95669833  0.04661309  0.42236067    -0.04600
N685        N  0.92943337  0.05474172  0.39406289    -0.62800
N686        N  0.95661496  0.07532989  0.45109962    -0.05300
N687        N  0.92928334  0.10353833  0.44292446    -0.62300
N688        N  0.54827502  0.04675629  0.42248117    -0.04200
N689        N  0.57559667  0.05493499  0.39425754    -0.63000
Mn690      Mn  0.00234376  0.07653012  0.49994066     1.10700
C691        C  0.59261341  0.09040863  0.40764701     0.99900
C692        C  0.91225609  0.09012621  0.40747036     1.00000
N693        N  0.95684315  0.42028987  0.45115309    -0.05300
N694        N  0.92957467  0.39200748  0.44298410    -0.60700
N695        N  0.54840297  0.44915301  0.42252465    -0.04600
N696        N  0.57573478  0.44103445  0.39429728    -0.57400
N697        N  0.54840983  0.42042485  0.45125324    -0.05900
N698        N  0.57574798  0.39220439  0.44312337    -0.60200
N699        N  0.95683756  0.44901728  0.42242336    -0.04900
N700        N  0.92956361  0.44083988  0.39415483    -0.57400
Mn701      Mn  0.50257185  0.41927930  0.00000386     1.20200
Mn702      Mn  0.50255634  0.49788198  0.42135590     1.10100
Cl703      Cl  0.50246646  0.99790650  0.99997212    -0.85400
C704        C  0.91248976  0.40540120  0.40755142     0.96900
C705        C  0.59287222  0.40564054  0.40772366     0.96700
C706        C  0.62175719  0.11546068  0.38261563     0.87100
C707        C  0.61754654  0.10926301  0.33565238    -0.53200
C708        C  0.64390353  0.13203698  0.31311486     0.10000
C709        C  0.67193796  0.15894227  0.33909420     0.20900
C710        C  0.66571793  0.10580017  0.39214035    -0.53900
C711        C  0.69179787  0.12869857  0.36923178     0.10100
C712        C  0.61767694  0.16242413  0.38892717    -0.53400
C713        C  0.64402836  0.18493921  0.36611918     0.10700
H714        H  0.59559806  0.08904186  0.32146800     0.15200
H715        H  0.69335223  0.17749315  0.32052686     0.00900
H716        H  0.67525625  0.08309602  0.41477890     0.15500
H717        H  0.59580399  0.17662561  0.40922200     0.15300
C718        C  0.62198957  0.38059954  0.38266292     0.87100
C719        C  0.61781390  0.33363892  0.38890652    -0.53200
C720        C  0.64413198  0.31110044  0.36609089     0.10000
C721        C  0.67210112  0.33707573  0.33910726     0.20900
C722        C  0.66596307  0.39016098  0.39222418    -0.53900
C723        C  0.69200574  0.36724361  0.36929033     0.10100
C724        C  0.61781239  0.38687474  0.33570822    -0.53400
C725        C  0.64413088  0.36407485  0.31315393     0.10700
H726        H  0.59591221  0.31945430  0.40918133     0.15200
H727        H  0.69348671  0.31850590  0.32052512     0.00900
H728        H  0.67553591  0.41281708  0.41489641     0.15500
H729        H  0.59590851  0.40715604  0.32153891     0.15300
C730        C  0.62179935  0.38067220  0.11752980     0.87100
C731        C  0.61768884  0.38695464  0.16449056    -0.53200
C732        C  0.64403122  0.36413661  0.18700322     0.10000
C733        C  0.67195631  0.33712872  0.16100638     0.20900
C734        C  0.66576217  0.39021512  0.10790041    -0.53900
C735        C  0.69182902  0.36729379  0.13079702     0.10200
C736        C  0.61759712  0.33371139  0.11129824    -0.53400
C737        C  0.64393833  0.31116234  0.13407007     0.10700
H738        H  0.59580948  0.40724307  0.17869072     0.15200
H739        H  0.69336166  0.31855141  0.17955547     0.00900
H740        H  0.67531118  0.41287411  0.08522003     0.15500
H741        H  0.59565862  0.31953366  0.09106164     0.15300
C742        C  0.62154651  0.11551769  0.11747766     0.87100
C743        C  0.61741075  0.16248574  0.11123871    -0.53200
C744        C  0.64379335  0.18499646  0.13401266     0.10000
C745        C  0.67177773  0.15899022  0.16094340     0.20900
C746        C  0.66549523  0.10591191  0.10784285    -0.53900
C747        C  0.69160199  0.12879894  0.13072640     0.10100
C748        C  0.61743574  0.10925329  0.16444257    -0.53400
C749        C  0.64381478  0.13203198  0.18695088     0.10700
H750        H  0.59548948  0.17669038  0.09100300     0.15200
H751        H  0.69321437  0.17753712  0.17948640     0.00900
H752        H  0.67500700  0.08324063  0.08515861     0.15500
H753        H  0.59552647  0.08900203  0.17864914     0.15300
C754        C  0.88315585  0.11518024  0.38240412     0.87100
C755        C  0.88739071  0.16213862  0.38864125    -0.53200
C756        C  0.86107012  0.18470952  0.36586350     0.10000
C757        C  0.83303784  0.15876475  0.33892069     0.20900
C758        C  0.83918734  0.10567001  0.39202322    -0.53900
C759        C  0.81313761  0.12860976  0.36912836     0.10100
C760        C  0.88727472  0.10890072  0.33544310    -0.53400
C761        C  0.86095668  0.13174464  0.31292449     0.10700
H762        H  0.90933251  0.17629757  0.40888718     0.15200
H763        H  0.81164827  0.17735947  0.32037000     0.00900
H764        H  0.82962045  0.08301882  0.41470330     0.15500
H765        H  0.90914719  0.08860131  0.32124728     0.15300
C766        C  0.88294428  0.11526802  0.11724611     0.87100
C767        C  0.88713152  0.10899260  0.16419954    -0.53200
C768        C  0.86084416  0.13182034  0.18676372     0.10000
C769        C  0.83288242  0.15883866  0.16081662     0.20900
C770        C  0.83896226  0.10574892  0.10769722    -0.53900
C771        C  0.81294240  0.12868723  0.13063455     0.10100
C772        C  0.88716032  0.16222738  0.11099998    -0.53400
C773        C  0.86086830  0.18479032  0.13382802     0.10700
H774        H  0.90902605  0.08869583  0.17836212     0.15200
H775        H  0.81151776  0.17742716  0.17940551     0.00900
H776        H  0.82936577  0.08309953  0.08502902     0.15500
H777        H  0.90906987  0.17639112  0.09071956     0.15300
C778        C  0.88317771  0.38043558  0.11733672     0.87100
C779        C  0.88726867  0.33347708  0.11102354    -0.53200
C780        C  0.86094668  0.31095458  0.13385383     0.10000
C781        C  0.83304368  0.33694600  0.16089732     0.20900
C782        C  0.83921631  0.39008971  0.10784453    -0.53900
C783        C  0.81315848  0.36719062  0.13077071     0.10100
C784        C  0.88742608  0.38664050  0.16429537    -0.53400
C785        C  0.86109344  0.36385864  0.18685461     0.10700
H786        H  0.90913260  0.31928148  0.09071395     0.15200
H787        H  0.81164601  0.31839067  0.17948013     0.00900
H788        H  0.82965945  0.41278961  0.08520963     0.15500
H789        H  0.90938122  0.40686798  0.17845983     0.15300
C790        C  0.88336723  0.38036093  0.38250803     0.87100
C791        C  0.88752319  0.38662712  0.33554901    -0.53200
C792        C  0.86117132  0.36384304  0.31301602     0.10000
C793        C  0.83318700  0.33688066  0.33899739     0.20900
C794        C  0.83941674  0.38996367  0.39210260    -0.53900
C795        C  0.81333449  0.36707622  0.36919785     0.10100
C796        C  0.88750971  0.33339649  0.38875427    -0.53400
C797        C  0.86115851  0.31087871  0.36595226     0.10700
H798        H  0.90944127  0.40688336  0.32136387     0.15200
H799        H  0.81176907  0.31833104  0.32043455     0.00900
H800        H  0.82988401  0.41263737  0.41477566     0.15500
H801        H  0.90942146  0.31919779  0.40900501     0.15300
C802        C  0.86044097  0.36440102  0.26854280    -0.12700
C803        C  0.86041908  0.36440157  0.23132931    -0.14300
C804        C  0.86018256  0.22926596  0.13327483    -0.12700
C805        C  0.86019705  0.26648079  0.13328369    -0.14300
C806        C  0.86020402  0.13120799  0.26845110    -0.12700
C807        C  0.86016150  0.13124192  0.23123762    -0.14300
C808        C  0.86039741  0.22918647  0.36643886    -0.12700
C809        C  0.86042542  0.26640223  0.36647334    -0.14300
C810        C  0.73429286  0.12533045  0.12724289    -0.12700
C811        C  0.77023958  0.12530261  0.12722209    -0.14300
C812        C  0.64462751  0.26668661  0.13350174    -0.12700
C813        C  0.64457059  0.22947139  0.13347101    -0.14300
C814        C  0.77046692  0.37067576  0.12736401    -0.12700
C815        C  0.73452259  0.37071523  0.12735196    -0.14300
C816        C  0.64484582  0.36466891  0.26868388    -0.12700
C817        C  0.64480905  0.36469656  0.23147239    -0.14300
C818        C  0.77064747  0.37056871  0.37265709    -0.12700
C819        C  0.73470334  0.37063952  0.37270171    -0.14300
C820        C  0.64458675  0.13148030  0.23142514    -0.12700
C821        C  0.64461409  0.13148942  0.26863949    -0.14300
C822        C  0.73449358  0.12521985  0.37263770    -0.12700
C823        C  0.77044025  0.12520900  0.37259829    -0.14300
C824        C  0.64485100  0.26662680  0.36666471    -0.12700
C825        C  0.64481360  0.22941238  0.36668687    -0.14300
N826        N  0.95649185  0.07537817  0.54866551    -0.05500
N827        N  0.92915279  0.10360216  0.55677633    -0.57700
N828        N  0.54807102  0.04682790  0.57755557    -0.05200
N829        N  0.57531974  0.05503374  0.60584636    -0.59800
N830        N  0.54806902  0.07554766  0.54881700    -0.04800
N831        N  0.57531793  0.10384912  0.55700119    -0.57600
N832        N  0.95649744  0.04666391  0.57740597    -0.04500
N833        N  0.92916249  0.05479755  0.60562657    -0.60100
C834        C  0.91202649  0.09018689  0.59218100     0.96600
C835        C  0.59238734  0.09047998  0.59245348     0.96400
N836        N  0.54829421  0.42047389  0.54885276    -0.05700
N837        N  0.57563109  0.39227067  0.55702992    -0.58200
N838        N  0.95664293  0.44909467  0.57744042    -0.03800
N839        N  0.92930730  0.44094955  0.60565437    -0.59500
N840        N  0.95673030  0.42032552  0.54875323    -0.05800
N841        N  0.92946485  0.39203539  0.55690894    -0.58500
N842        N  0.54821151  0.44919889  0.57758593    -0.03500
N843        N  0.57548449  0.44108148  0.60587823    -0.59600
Mn844      Mn  0.00235786  0.99794525  0.57858838     1.18400
C845        C  0.59266595  0.40569756  0.59247518     0.98700
C846        C  0.91228432  0.40547981  0.59227601     0.99400
N847        N  0.54818777  0.07551228  0.95118307    -0.05800
N848        N  0.57543780  0.10382172  0.94302919    -0.62100
N849        N  0.95669837  0.04661312  0.92236062    -0.04600
N850        N  0.92943332  0.05474173  0.89406287    -0.62800
N851        N  0.95661503  0.07532992  0.95109951    -0.05300
N852        N  0.92928339  0.10353836  0.94292444    -0.62300
N853        N  0.54827501  0.04675628  0.92248106    -0.04200
N854        N  0.57559670  0.05493495  0.89425749    -0.63000
Mn855      Mn  0.00234377  0.07653014  0.99994056     1.10700
C856        C  0.59261343  0.09040860  0.90764697     0.99900
C857        C  0.91225605  0.09012617  0.90747041     1.00000
N858        N  0.95684315  0.42028984  0.95115318    -0.05300
N859        N  0.92957460  0.39200749  0.94298423    -0.60700
N860        N  0.54840298  0.44915299  0.92252475    -0.04600
N861        N  0.57573472  0.44103444  0.89429735    -0.57400
N862        N  0.54840989  0.42042479  0.95125335    -0.05900
N863        N  0.57574806  0.39220439  0.94312343    -0.60200
N864        N  0.95683759  0.44901723  0.92242341    -0.04900
N865        N  0.92956368  0.44083980  0.89415487    -0.57400
Mn866      Mn  0.50257190  0.41927933  0.50000384     1.20200
Mn867      Mn  0.50255631  0.49788196  0.92135593     1.10100
Cl868      Cl  0.50246654  0.99790649  0.49997211    -0.85400
C869        C  0.91248970  0.40540119  0.90755152     0.96900
C870        C  0.59287221  0.40564051  0.90772365     0.96700
C871        C  0.62175722  0.11546069  0.88261563     0.87100
C872        C  0.61754659  0.10926301  0.83565239    -0.53200
C873        C  0.64390364  0.13203696  0.81311487     0.10000
C874        C  0.67193803  0.15894228  0.83909421     0.20900
C875        C  0.66571797  0.10580025  0.89214039    -0.53900
C876        C  0.69179793  0.12869861  0.86923182     0.10100
C877        C  0.61767692  0.16242414  0.88892706    -0.53400
C878        C  0.64402837  0.18493924  0.86611913     0.10700
H879        H  0.59559807  0.08904194  0.82146809     0.15200
H880        H  0.69335238  0.17749314  0.82052693     0.00900
H881        H  0.67525628  0.08309606  0.91477897     0.15500
H882        H  0.59580389  0.17662567  0.90922181     0.15300
C883        C  0.62198955  0.38059955  0.88266286     0.87100
C884        C  0.61781386  0.33363891  0.88890647    -0.53200
C885        C  0.64413205  0.31110045  0.86609093     0.10000
C886        C  0.67210117  0.33707570  0.83910728     0.20900
C887        C  0.66596305  0.39016093  0.89222419    -0.53900
C888        C  0.69200575  0.36724356  0.86929039     0.10100
C889        C  0.61781243  0.38687474  0.83570816    -0.53400
C890        C  0.64413089  0.36407480  0.81315392     0.10700
H891        H  0.59591219  0.31945434  0.90918119     0.15200
H892        H  0.69348675  0.31850593  0.82052517     0.00900
H893        H  0.67553584  0.41281702  0.91489642     0.15500
H894        H  0.59590856  0.40715606  0.82153876     0.15300
C895        C  0.62179930  0.38067222  0.61752986     0.87100
C896        C  0.61768886  0.38695465  0.66449062    -0.53200
C897        C  0.64403124  0.36413662  0.68700325     0.10000
C898        C  0.67195629  0.33712872  0.66100639     0.20900
C899        C  0.66576212  0.39021515  0.60790046    -0.53900
C900        C  0.69182900  0.36729383  0.63079706     0.10200
C901        C  0.61759704  0.33371139  0.61129820    -0.53400
C902        C  0.64393831  0.31116236  0.63407005     0.10700
H903        H  0.59580956  0.40724318  0.67869080     0.15200
H904        H  0.69336164  0.31855141  0.67955545     0.00900
H905        H  0.67531112  0.41287417  0.58522010     0.15500
H906        H  0.59565871  0.31953374  0.59106160     0.15300
C907        C  0.62154660  0.11551771  0.61747762     0.87100
C908        C  0.61741083  0.16248576  0.61123862    -0.53200
C909        C  0.64379334  0.18499648  0.63401271     0.10000
C910        C  0.67177777  0.15899023  0.66094343     0.20900
C911        C  0.66549534  0.10591190  0.60784277    -0.53900
C912        C  0.69160206  0.12879896  0.63072637     0.10100
C913        C  0.61743575  0.10925330  0.66444255    -0.53400
C914        C  0.64381481  0.13203198  0.68695088     0.10700
H915        H  0.59548967  0.17669034  0.59100284     0.15200
H916        H  0.69321438  0.17753710  0.67948641     0.00900
H917        H  0.67500711  0.08324079  0.58515855     0.15500
H918        H  0.59552648  0.08900217  0.67864905     0.15300
C919        C  0.88315581  0.11518021  0.88240423     0.87100
C920        C  0.88739067  0.16213858  0.88864136    -0.53200
C921        C  0.86107015  0.18470952  0.86586354     0.10000
C922        C  0.83303790  0.15876477  0.83892073     0.20900
C923        C  0.83918731  0.10567001  0.89202331    -0.53900
C924        C  0.81313765  0.12860980  0.86912842     0.10100
C925        C  0.88727472  0.10890069  0.83544321    -0.53400
C926        C  0.86095676  0.13174466  0.81292456     0.10700
H927        H  0.90933249  0.17629752  0.90888740     0.15200
H928        H  0.81164836  0.17735951  0.82037001     0.00900
H929        H  0.82962037  0.08301884  0.91470338     0.15500
H930        H  0.90914717  0.08860121  0.82124739     0.15300
C931        C  0.88294430  0.11526808  0.61724613     0.87100
C932        C  0.88713156  0.10899263  0.66419956    -0.53200
C933        C  0.86084417  0.13182032  0.68676377     0.10000
C934        C  0.83288242  0.15883866  0.66081669     0.20900
C935        C  0.83896231  0.10574897  0.60769726    -0.53900
C936        C  0.81294243  0.12868724  0.63063456     0.10100
C937        C  0.88716038  0.16222743  0.61100006    -0.53400
C938        C  0.86086834  0.18479033  0.63382812     0.10700
H939        H  0.90902615  0.08869596  0.67836210     0.15200
H940        H  0.81151773  0.17742712  0.67940552     0.00900
H941        H  0.82936582  0.08309955  0.58502902     0.15500
H942        H  0.90906995  0.17639118  0.59071968     0.15300
C943        C  0.88317770  0.38043555  0.61733677     0.87100
C944        C  0.88726873  0.33347698  0.61102361    -0.53200
C945        C  0.86094664  0.31095454  0.63385390     0.10000
C946        C  0.83304360  0.33694595  0.66089732     0.20900
C947        C  0.83921631  0.39008966  0.60784455    -0.53900
C948        C  0.81315848  0.36719055  0.63077067     0.10100
C949        C  0.88742595  0.38664045  0.66429537    -0.53400
C950        C  0.86109335  0.36385865  0.68685461     0.10700
H951        H  0.90913260  0.31928138  0.59071417     0.15200
H952        H  0.81164596  0.31839066  0.67948007     0.00900
H953        H  0.82965950  0.41278968  0.58520973     0.15500
H954        H  0.90938116  0.40686804  0.67845988     0.15300
C955        C  0.88336718  0.38036094  0.88250807     0.87100
C956        C  0.88752320  0.38662711  0.83554906    -0.53200
C957        C  0.86117134  0.36384306  0.81301600     0.10000
C958        C  0.83318697  0.33688071  0.83899732     0.20900
C959        C  0.83941667  0.38996372  0.89210261    -0.53900
C960        C  0.81333448  0.36707626  0.86919779     0.10100
C961        C  0.88750960  0.33339651  0.88875418    -0.53400
C962        C  0.86115847  0.31087872  0.86595216     0.10700
H963        H  0.90944137  0.40688335  0.82136400     0.15200
H964        H  0.81176900  0.31833117  0.82043446     0.00900
H965        H  0.82988390  0.41263731  0.91477564     0.15500
H966        H  0.90942148  0.31919772  0.90900492     0.15300
C967        C  0.86044092  0.36440108  0.76854279    -0.12700
C968        C  0.86041894  0.36440160  0.73132931    -0.14300
C969        C  0.86018248  0.22926594  0.63327491    -0.12700
C970        C  0.86019692  0.26648076  0.63328377    -0.14300
C971        C  0.86020417  0.13120803  0.76845117    -0.12700
C972        C  0.86016161  0.13124195  0.73123769    -0.14300
C973        C  0.86039745  0.22918647  0.86643874    -0.12700
C974        C  0.86042546  0.26640223  0.86647311    -0.14300
C975        C  0.73429292  0.12533050  0.62724274    -0.12700
C976        C  0.77023963  0.12530266  0.62722194    -0.14300
C977        C  0.64462755  0.26668664  0.63350163    -0.12700
C978        C  0.64457054  0.22947141  0.63347104    -0.14300
C979        C  0.77046693  0.37067578  0.62736405    -0.12700
C980        C  0.73452260  0.37071528  0.62735203    -0.14300
C981        C  0.64484576  0.36466874  0.76868387    -0.12700
C982        C  0.64480910  0.36469652  0.73147240    -0.14300
C983        C  0.77064748  0.37056873  0.87265712    -0.12700
C984        C  0.73470336  0.37063950  0.87270181    -0.14300
C985        C  0.64458673  0.13148033  0.73142515    -0.12700
C986        C  0.64461418  0.13148943  0.76863951    -0.14300
C987        C  0.73449364  0.12521984  0.87263764    -0.12700
C988        C  0.77044030  0.12520904  0.87259830    -0.14300
C989        C  0.64485109  0.26662682  0.86666480    -0.12700
C990        C  0.64481360  0.22941241  0.86668688    -0.14300
N991        N  0.95649190  0.57537820  0.04866549    -0.05500
N992        N  0.92915293  0.60360224  0.05677643    -0.57700
N993        N  0.54807103  0.54682784  0.07755552    -0.05200
N994        N  0.57531973  0.55503373  0.10584637    -0.59800
N995        N  0.54806904  0.57554753  0.04881695    -0.04800
N996        N  0.57531790  0.60384909  0.05700117    -0.57600
N997        N  0.95649747  0.54666388  0.07740592    -0.04500
N998        N  0.92916257  0.55479750  0.10562655    -0.60100
C999        C  0.91202659  0.59018691  0.09218105     0.96600
C1000       C  0.59238725  0.59047999  0.09245348     0.96400
N1001       N  0.54829417  0.92047386  0.04885280    -0.05700
N1002       N  0.57563117  0.89227074  0.05702987    -0.58200
N1003       N  0.95664289  0.94909472  0.07744033    -0.03800
N1004       N  0.92930722  0.94094960  0.10565422    -0.59500
N1005       N  0.95673038  0.92032550  0.04875321    -0.05800
N1006       N  0.92946496  0.89203535  0.05690890    -0.58500
N1007       N  0.54821148  0.94919885  0.07758601    -0.03500
N1008       N  0.57548451  0.94108149  0.10587823    -0.59600
Mn1009     Mn  0.00235792  0.49794521  0.07858834     1.18400
C1010       C  0.59266605  0.90569762  0.09247512     0.98700
C1011       C  0.91228432  0.90547981  0.09227590     0.99400
N1012       N  0.54818780  0.57551225  0.45118319    -0.05800
N1013       N  0.57543789  0.60382167  0.44302931    -0.62100
N1014       N  0.95669831  0.54661311  0.42236065    -0.04600
N1015       N  0.92943325  0.55474169  0.39406296    -0.62800
N1016       N  0.95661500  0.57532994  0.45109958    -0.05300
N1017       N  0.92928335  0.60353837  0.44292448    -0.62300
N1018       N  0.54827495  0.54675631  0.42248116    -0.04200
N1019       N  0.57559657  0.55493501  0.39425750    -0.63000
Mn1020     Mn  0.00234380  0.57653009  0.49994065     1.10700
C1021       C  0.59261337  0.59040861  0.40764700     0.99900
C1022       C  0.91225599  0.59012616  0.40747045     1.00000
N1023       N  0.95684318  0.92028987  0.45115311    -0.05300
N1024       N  0.92957471  0.89200747  0.44298412    -0.60700
N1025       N  0.54840289  0.94915299  0.42252466    -0.04600
N1026       N  0.57573463  0.94103443  0.39429726    -0.57400
N1027       N  0.54840982  0.92042481  0.45125328    -0.05900
N1028       N  0.57574797  0.89220440  0.44312337    -0.60200
N1029       N  0.95683763  0.94901725  0.42242334    -0.04900
N1030       N  0.92956371  0.94083980  0.39415479    -0.57400
Mn1031     Mn  0.50257189  0.91927933  0.00000386     1.20200
Mn1032     Mn  0.50255630  0.99788198  0.42135591     1.10100
Cl1033     Cl  0.50246643  0.49790648  0.99997212    -0.85400
C1034       C  0.91248981  0.90540116  0.40755140     0.96900
C1035       C  0.59287214  0.90564052  0.40772360     0.96700
C1036       C  0.62175722  0.61546067  0.38261564     0.87100
C1037       C  0.61754659  0.60926303  0.33565238    -0.53200
C1038       C  0.64390359  0.63203702  0.31311487     0.10000
C1039       C  0.67193800  0.65894231  0.33909421     0.20900
C1040       C  0.66571798  0.60580019  0.39214036    -0.53900
C1041       C  0.69179792  0.62869860  0.36923178     0.10100
C1042       C  0.61767697  0.66242412  0.38892719    -0.53400
C1043       C  0.64402837  0.68493924  0.36611919     0.10700
H1044       H  0.59559812  0.58904188  0.32146800     0.15200
H1045       H  0.69335227  0.67749321  0.32052687     0.00900
H1046       H  0.67525631  0.58309605  0.41477890     0.15500
H1047       H  0.59580401  0.67662559  0.40922200     0.15300
C1048       C  0.62198952  0.88059956  0.38266287     0.87100
C1049       C  0.61781379  0.83363892  0.38890650    -0.53200
C1050       C  0.64413194  0.81110045  0.36609091     0.10000
C1051       C  0.67210109  0.83707569  0.33910728     0.20900
C1052       C  0.66596304  0.89016095  0.39222418    -0.53900
C1053       C  0.69200571  0.86724355  0.36929036     0.10100
C1054       C  0.61781238  0.88687476  0.33570819    -0.53400
C1055       C  0.64413084  0.86407480  0.31315393     0.10700
H1056       H  0.59591212  0.81945434  0.40918122     0.15200
H1057       H  0.69348666  0.81850589  0.32052516     0.00900
H1058       H  0.67553589  0.91281707  0.41489635     0.15500
H1059       H  0.59590852  0.90715612  0.32153886     0.15300
C1060       C  0.62179928  0.88067223  0.11752982     0.87100
C1061       C  0.61768881  0.88695468  0.16449057    -0.53200
C1062       C  0.64403116  0.86413663  0.18700322     0.10000
C1063       C  0.67195622  0.83712874  0.16100637     0.20900
C1064       C  0.66576211  0.89021514  0.10790040    -0.53900
C1065       C  0.69182895  0.86729380  0.13079701     0.10200
C1066       C  0.61759698  0.83371141  0.11129827    -0.53400
C1067       C  0.64393822  0.81116236  0.13407009     0.10700
H1068       H  0.59580948  0.90724320  0.17869074     0.15200
H1069       H  0.69336157  0.81855143  0.17955544     0.00900
H1070       H  0.67531115  0.91287410  0.08522006     0.15500
H1071       H  0.59565848  0.81953374  0.09106167     0.15300
C1072       C  0.62154653  0.61551772  0.11747765     0.87100
C1073       C  0.61741078  0.66248577  0.11123872    -0.53200
C1074       C  0.64379338  0.68499648  0.13401269     0.10000
C1075       C  0.67177776  0.65899021  0.16094342     0.20900
C1076       C  0.66549525  0.60591192  0.10784282    -0.53900
C1077       C  0.69160200  0.62879896  0.13072638     0.10100
C1078       C  0.61743578  0.60925327  0.16444256    -0.53400
C1079       C  0.64381485  0.63203191  0.18695088     0.10700
H1080       H  0.59548953  0.67669042  0.09100299     0.15200
H1081       H  0.69321440  0.67753708  0.17948642     0.00900
H1082       H  0.67500703  0.58324067  0.08515860     0.15500
H1083       H  0.59552645  0.58900204  0.17864913     0.15300
C1084       C  0.88315579  0.61518018  0.38240417     0.87100
C1085       C  0.88739069  0.66213855  0.38864132    -0.53200
C1086       C  0.86107013  0.68470947  0.36586353     0.10000
C1087       C  0.83303787  0.65876471  0.33892070     0.20900
C1088       C  0.83918726  0.60566989  0.39202324    -0.53900
C1089       C  0.81313762  0.62860973  0.36912834     0.10100
C1090       C  0.88727476  0.60890071  0.33544315    -0.53400
C1091       C  0.86095674  0.63174464  0.31292451     0.10700
H1092       H  0.90933248  0.67629747  0.40888728     0.15200
H1093       H  0.81164834  0.67735947  0.32037001     0.00900
H1094       H  0.82962032  0.58301874  0.41470316     0.15500
H1095       H  0.90914727  0.58860133  0.32124737     0.15300
C1096       C  0.88294430  0.61526806  0.11724611     0.87100
C1097       C  0.88713153  0.60899265  0.16419954    -0.53200
C1098       C  0.86084416  0.63182036  0.18676372     0.10000
C1099       C  0.83288238  0.65883868  0.16081663     0.20900
C1100       C  0.83896227  0.60574895  0.10769722    -0.53900
C1101       C  0.81294239  0.62868725  0.13063454     0.10100
C1102       C  0.88716032  0.66222743  0.11100002    -0.53400
C1103       C  0.86086825  0.68479034  0.13382803     0.10700
H1104       H  0.90902608  0.58869591  0.17836212     0.15200
H1105       H  0.81151770  0.67742712  0.17940547     0.00900
H1106       H  0.82936579  0.58309956  0.08502902     0.15500
H1107       H  0.90906987  0.67639119  0.09071960     0.15300
C1108       C  0.88317772  0.88043555  0.11733671     0.87100
C1109       C  0.88726868  0.83347702  0.11102357    -0.53200
C1110       C  0.86094662  0.81095458  0.13385385     0.10000
C1111       C  0.83304360  0.83694603  0.16089731     0.20900
C1112       C  0.83921633  0.89008970  0.10784452    -0.53900
C1113       C  0.81315846  0.86719064  0.13077067     0.10100
C1114       C  0.88742606  0.88664049  0.16429535    -0.53400
C1115       C  0.86109337  0.86385869  0.18685457     0.10700
H1116       H  0.90913256  0.81928137  0.09071403     0.15200
H1117       H  0.81164591  0.81839077  0.17948006     0.00900
H1118       H  0.82965951  0.91278963  0.08520964     0.15500
H1119       H  0.90938122  0.90686790  0.17845984     0.15300
C1120       C  0.88336724  0.88036093  0.38250801     0.87100
C1121       C  0.88752321  0.88662715  0.33554898    -0.53200
C1122       C  0.86117135  0.86384307  0.31301597     0.10000
C1123       C  0.83318700  0.83688070  0.33899733     0.20900
C1124       C  0.83941675  0.88996369  0.39210258    -0.53900
C1125       C  0.81333450  0.86707624  0.36919782     0.10100
C1126       C  0.88750965  0.83339651  0.38875415    -0.53400
C1127       C  0.86115850  0.81087869  0.36595220     0.10700
H1128       H  0.90944131  0.90688338  0.32136387     0.15200
H1129       H  0.81176903  0.81833109  0.32043447     0.00900
H1130       H  0.82988402  0.91263739  0.41477565     0.15500
H1131       H  0.90942151  0.81919775  0.40900498     0.15300
C1132       C  0.86044103  0.86440105  0.26854274    -0.12700
C1133       C  0.86041907  0.86440159  0.23132926    -0.14300
C1134       C  0.86018237  0.72926596  0.13327481    -0.12700
C1135       C  0.86019685  0.76648079  0.13328368    -0.14300
C1136       C  0.86020409  0.63120801  0.26845111    -0.12700
C1137       C  0.86016154  0.63124196  0.23123762    -0.14300
C1138       C  0.86039733  0.72918642  0.36643890    -0.12700
C1139       C  0.86042538  0.76640219  0.36647332    -0.14300
C1140       C  0.73429284  0.62533047  0.12724288    -0.12700
C1141       C  0.77023956  0.62530262  0.12722207    -0.14300
C1142       C  0.64462750  0.76668664  0.13350172    -0.12700
C1143       C  0.64457065  0.72947141  0.13347101    -0.14300
C1144       C  0.77046689  0.87067581  0.12736399    -0.12700
C1145       C  0.73452255  0.87071526  0.12735196    -0.14300
C1146       C  0.64484581  0.86466878  0.26868388    -0.12700
C1147       C  0.64480905  0.86469654  0.23147239    -0.14300
C1148       C  0.77064747  0.87056874  0.37265708    -0.12700
C1149       C  0.73470333  0.87063950  0.37270171    -0.14300
C1150       C  0.64458681  0.63148028  0.23142514    -0.12700
C1151       C  0.64461415  0.63148945  0.26863950    -0.14300
C1152       C  0.73449362  0.62521988  0.37263770    -0.12700
C1153       C  0.77044027  0.62520904  0.37259828    -0.14300
C1154       C  0.64485097  0.76662683  0.36666473    -0.12700
C1155       C  0.64481350  0.72941241  0.36668684    -0.14300
N1156       N  0.95649189  0.57537805  0.54866552    -0.05500
N1157       N  0.92915285  0.60360205  0.55677636    -0.57700
N1158       N  0.54807102  0.54682787  0.57755559    -0.05200
N1159       N  0.57531976  0.55503371  0.60584636    -0.59800
N1160       N  0.54806899  0.57554759  0.54881701    -0.04800
N1161       N  0.57531793  0.60384909  0.55700118    -0.57600
N1162       N  0.95649745  0.54666378  0.57740597    -0.04500
N1163       N  0.92916246  0.55479740  0.60562654    -0.60100
C1164       C  0.91202650  0.59018679  0.59218099     0.96600
C1165       C  0.59238735  0.59047994  0.59245344     0.96400
N1166       N  0.54829426  0.92047392  0.54885276    -0.05700
N1167       N  0.57563114  0.89227070  0.55702991    -0.58200
N1168       N  0.95664280  0.94909472  0.57744040    -0.03800
N1169       N  0.92930718  0.94094953  0.60565436    -0.59500
N1170       N  0.95673027  0.92032555  0.54875324    -0.05800
N1171       N  0.92946489  0.89203534  0.55690893    -0.58500
N1172       N  0.54821156  0.94919892  0.57758593    -0.03500
N1173       N  0.57548454  0.94108151  0.60587823    -0.59600
Mn1174     Mn  0.00235798  0.49794519  0.57858837     1.18400
C1175       C  0.59266600  0.90569759  0.59247517     0.98700
C1176       C  0.91228431  0.90547975  0.59227597     0.99400
N1177       N  0.54818783  0.57551219  0.95118310    -0.05800
N1178       N  0.57543784  0.60382169  0.94302921    -0.62100
N1179       N  0.95669837  0.54661311  0.92236062    -0.04600
N1180       N  0.92943334  0.55474173  0.89406289    -0.62800
N1181       N  0.95661506  0.57532992  0.95109952    -0.05300
N1182       N  0.92928344  0.60353840  0.94292442    -0.62300
N1183       N  0.54827505  0.54675624  0.92248107    -0.04200
N1184       N  0.57559672  0.55493494  0.89425746    -0.63000
Mn1185     Mn  0.00234379  0.57653012  0.99994057     1.10700
C1186       C  0.59261342  0.59040860  0.90764697     0.99900
C1187       C  0.91225610  0.59012621  0.90747040     1.00000
N1188       N  0.95684311  0.92028989  0.95115321    -0.05300
N1189       N  0.92957460  0.89200752  0.94298423    -0.60700
N1190       N  0.54840304  0.94915303  0.92252476    -0.04600
N1191       N  0.57573478  0.94103447  0.89429735    -0.57400
N1192       N  0.54840995  0.92042482  0.95125335    -0.05900
N1193       N  0.57574811  0.89220442  0.94312343    -0.60200
N1194       N  0.95683755  0.94901727  0.92242343    -0.04900
N1195       N  0.92956370  0.94083979  0.89415484    -0.57400
Mn1196     Mn  0.50257192  0.91927935  0.50000386     1.20200
Mn1197     Mn  0.50255635  0.99788197  0.92135594     1.10100
Cl1198     Cl  0.50246651  0.49790646  0.49997211    -0.85400
C1199       C  0.91248973  0.90540118  0.90755148     0.96900
C1200       C  0.59287225  0.90564055  0.90772365     0.96700
C1201       C  0.62175721  0.61546070  0.88261563     0.87100
C1202       C  0.61754654  0.60926307  0.83565242    -0.53200
C1203       C  0.64390352  0.63203701  0.81311487     0.10000
C1204       C  0.67193801  0.65894226  0.83909421     0.20900
C1205       C  0.66571796  0.60580015  0.89214037    -0.53900
C1206       C  0.69179792  0.62869857  0.86923179     0.10100
C1207       C  0.61767693  0.66242417  0.88892709    -0.53400
C1208       C  0.64402840  0.68493923  0.86611916     0.10700
H1209       H  0.59559795  0.58904193  0.82146809     0.15200
H1210       H  0.69335234  0.67749310  0.82052692     0.00900
H1211       H  0.67525618  0.58309597  0.91477884     0.15500
H1212       H  0.59580390  0.67662570  0.90922177     0.15300
C1213       C  0.62198954  0.88059956  0.88266286     0.87100
C1214       C  0.61781383  0.83363894  0.88890650    -0.53200
C1215       C  0.64413194  0.81110046  0.86609090     0.10000
C1216       C  0.67210113  0.83707570  0.83910728     0.20900
C1217       C  0.66596305  0.89016095  0.89222417    -0.53900
C1218       C  0.69200574  0.86724355  0.86929039     0.10100
C1219       C  0.61781236  0.88687476  0.83570815    -0.53400
C1220       C  0.64413087  0.86407482  0.81315392     0.10700
H1221       H  0.59591218  0.81945437  0.90918127     0.15200
H1222       H  0.69348669  0.81850590  0.82052518     0.00900
H1223       H  0.67553583  0.91281704  0.91489639     0.15500
H1224       H  0.59590851  0.90715598  0.82153879     0.15300
C1225       C  0.62179932  0.88067224  0.61752985     0.87100
C1226       C  0.61768879  0.88695464  0.66449060    -0.53200
C1227       C  0.64403119  0.86413666  0.68700325     0.10000
C1228       C  0.67195631  0.83712877  0.66100642     0.20900
C1229       C  0.66576215  0.89021519  0.60790049    -0.53900
C1230       C  0.69182902  0.86729386  0.63079708     0.10200
C1231       C  0.61759712  0.83371143  0.61129824    -0.53400
C1232       C  0.64393836  0.81116238  0.63407004     0.10700
H1233       H  0.59580941  0.90724306  0.67869075     0.15200
H1234       H  0.69336166  0.81855151  0.67955547     0.00900
H1235       H  0.67531116  0.91287419  0.58522012     0.15500
H1236       H  0.59565869  0.81953376  0.59106158     0.15300
C1237       C  0.62154663  0.61551766  0.61747760     0.87100
C1238       C  0.61741091  0.66248568  0.61123866    -0.53200
C1239       C  0.64379338  0.68499644  0.63401272     0.10000
C1240       C  0.67177779  0.65899014  0.66094345     0.20900
C1241       C  0.66549539  0.60591187  0.60784274    -0.53900
C1242       C  0.69160210  0.62879892  0.63072638     0.10100
C1243       C  0.61743575  0.60925323  0.66444252    -0.53400
C1244       C  0.64381481  0.63203188  0.68695088     0.10700
H1245       H  0.59548964  0.67669031  0.59100282     0.15200
H1246       H  0.69321441  0.67753696  0.67948652     0.00900
H1247       H  0.67500719  0.58324080  0.58515849     0.15500
H1248       H  0.59552640  0.58900212  0.67864900     0.15300
C1249       C  0.88315586  0.61518020  0.88240422     0.87100
C1250       C  0.88739070  0.66213857  0.88864137    -0.53200
C1251       C  0.86107020  0.68470949  0.86586356     0.10000
C1252       C  0.83303793  0.65876476  0.83892074     0.20900
C1253       C  0.83918736  0.60566992  0.89202326    -0.53900
C1254       C  0.81313769  0.62860976  0.86912842     0.10100
C1255       C  0.88727479  0.60890071  0.83544320    -0.53400
C1256       C  0.86095682  0.63174468  0.81292457     0.10700
H1257       H  0.90933253  0.67629752  0.90888740     0.15200
H1258       H  0.81164844  0.67735952  0.82037007     0.00900
H1259       H  0.82962044  0.58301867  0.91470324     0.15500
H1260       H  0.90914724  0.58860124  0.82124738     0.15300
C1261       C  0.88294431  0.61526807  0.61724612     0.87100
C1262       C  0.88713158  0.60899269  0.66419957    -0.53200
C1263       C  0.86084416  0.63182037  0.68676377     0.10000
C1264       C  0.83288240  0.65883868  0.66081669     0.20900
C1265       C  0.83896232  0.60574896  0.60769728    -0.53900
C1266       C  0.81294245  0.62868724  0.63063458     0.10100
C1267       C  0.88716029  0.66222745  0.61100000    -0.53400
C1268       C  0.86086826  0.68479036  0.63382809     0.10700
H1269       H  0.90902617  0.58869601  0.67836211     0.15200
H1270       H  0.81151769  0.67742711  0.67940555     0.00900
H1271       H  0.82936584  0.58309956  0.58502902     0.15500
H1272       H  0.90906981  0.67639123  0.59071958     0.15300
C1273       C  0.88317770  0.88043553  0.61733672     0.87100
C1274       C  0.88726875  0.83347698  0.61102349    -0.53200
C1275       C  0.86094667  0.81095457  0.63385385     0.10000
C1276       C  0.83304366  0.83694597  0.66089730     0.20900
C1277       C  0.83921633  0.89008968  0.60784455    -0.53900
C1278       C  0.81315850  0.86719058  0.63077067     0.10100
C1279       C  0.88742600  0.88664044  0.66429533    -0.53400
C1280       C  0.86109340  0.86385866  0.68685459     0.10700
H1281       H  0.90913252  0.81928143  0.59071404     0.15200
H1282       H  0.81164602  0.81839067  0.67948006     0.00900
H1283       H  0.82965950  0.91278971  0.58520975     0.15500
H1284       H  0.90938120  0.90686803  0.67845984     0.15300
C1285       C  0.88336720  0.88036092  0.88250806     0.87100
C1286       C  0.88752316  0.88662701  0.83554905    -0.53200
C1287       C  0.86117138  0.86384293  0.81301599     0.10000
C1288       C  0.83318697  0.83688064  0.83899735     0.20900
C1289       C  0.83941670  0.88996373  0.89210261    -0.53900
C1290       C  0.81333450  0.86707627  0.86919778     0.10100
C1291       C  0.88750962  0.83339649  0.88875420    -0.53400
C1292       C  0.86115850  0.81087867  0.86595220     0.10700
H1293       H  0.90944131  0.90688338  0.82136392     0.15200
H1294       H  0.81176899  0.81833108  0.82043450     0.00900
H1295       H  0.82988396  0.91263735  0.91477562     0.15500
H1296       H  0.90942155  0.81919774  0.90900492     0.15300
C1297       C  0.86044093  0.86440103  0.76854278    -0.12700
C1298       C  0.86041900  0.86440163  0.73132929    -0.14300
C1299       C  0.86018247  0.72926598  0.63327493    -0.12700
C1300       C  0.86019699  0.76648079  0.63328376    -0.14300
C1301       C  0.86020416  0.63120805  0.76845118    -0.12700
C1302       C  0.86016151  0.63124196  0.73123769    -0.14300
C1303       C  0.86039750  0.72918644  0.86643874    -0.12700
C1304       C  0.86042552  0.76640220  0.86647312    -0.14300
C1305       C  0.73429296  0.62533052  0.62724274    -0.12700
C1306       C  0.77023967  0.62530268  0.62722193    -0.14300
C1307       C  0.64462761  0.76668663  0.63350163    -0.12700
C1308       C  0.64457059  0.72947139  0.63347105    -0.14300
C1309       C  0.77046695  0.87067581  0.62736405    -0.12700
C1310       C  0.73452262  0.87071531  0.62735204    -0.14300
C1311       C  0.64484574  0.86466877  0.76868387    -0.12700
C1312       C  0.64480898  0.86469654  0.73147240    -0.14300
C1313       C  0.77064749  0.87056876  0.87265712    -0.12700
C1314       C  0.73470336  0.87063952  0.87270180    -0.14300
C1315       C  0.64458667  0.63148029  0.73142515    -0.12700
C1316       C  0.64461401  0.63148948  0.76863952    -0.14300
C1317       C  0.73449365  0.62521985  0.87263764    -0.12700
C1318       C  0.77044032  0.62520905  0.87259831    -0.14300
C1319       C  0.64485094  0.76662681  0.86666478    -0.12700
C1320       C  0.64481360  0.72941240  0.86668688    -0.14300
loop_ 
_geom_bond_atom_site_label_1 
_geom_bond_atom_site_label_2 
_geom_bond_distance 
_geom_bond_site_symmetry_2 
_ccdc_geom_bond_type 
N1            N2   1.320       .  A
N1            N7   1.315       .  A
N1         Mn195   2.202   1_554  S
N2            C9   1.354       .  A
N3            N5   1.316       .  A
N3            N4   1.320       .  A
N3         Mn679   2.202   1_545  S
N4           C10   1.354       .  A
N5            N6   1.320       .  A
N5         Mn855   2.203   1_554  S
N6           C10   1.354       .  A
N7            N8   1.320       .  A
N7          Mn19   2.202   1_545  S
N8            C9   1.354       .  A
C9          C106   1.506       .  S
C10          C82   1.506       .  S
N11          N17   1.316       .  A
N11          N12   1.320       .  A
N11         Mn41   2.202       .  S
N12          C20   1.353       .  A
N13          N14   1.320       .  A
N13          N15   1.316       .  A
N13        Mn349   2.202       .  S
N14          C21   1.353       .  A
N15          N16   1.320       .  A
N15        Mn701   2.202       .  S
N16          C21   1.354       .  A
N17          N18   1.320       .  A
N17       Mn1009   2.203       .  S
N18          C20   1.354       .  A
Mn19        N663   2.202   1_565  S
Mn19        N343   2.202       .  S
Mn19       N1007   2.203       .  S
Mn19       Cl703   2.546   1_554  S
C20          C70   1.506       .  S
C21         C118   1.506       .  S
N22          N23   1.320       .  A
N22          N28   1.316       .  A
N22        Mn690   2.203       .  S
N23          C31   1.354       .  A
N24          N26   1.315       .  A
N24          N25   1.320       .  A
N24       Mn1032   2.202   1_545  S
N25          C32   1.354       .  A
N26          N27   1.320       .  A
N26         Mn30   2.202       .  S
N27          C32   1.353       .  A
N28          N29   1.320       .  A
N28        Mn372   2.202   1_545  S
N29          C31   1.354       .  A
Mn30        N166   2.202       .  S
Mn30        N830   2.203       .  S
Mn30        N682   2.203       .  S
Mn30       Cl868   2.546   1_545  S
C31          C46   1.506       .  S
C32          C94   1.506       .  S
N33          N34   1.320       .  A
N33          N39   1.316       .  A
N33        Mn866   2.202       .  S
N34          C44   1.354       .  A
N35          N36   1.320       .  A
N35          N37   1.316       .  A
N35         Mn42   2.202       .  S
N36          C45   1.354       .  A
N37          N38   1.320       .  A
N37        Mn206   2.202       .  S
N38          C45   1.354       .  A
N39          N40   1.320       .  A
N39        Mn702   2.202       .  S
N40          C44   1.353       .  A
Mn41        N675   2.202   1_455  S
Mn41        N858   2.202   1_454  S
Mn41        N202   2.202   1_554  S
Mn41       Cl373   2.546   1_554  S
Mn42       N1014   2.202   1_455  S
Mn42        N358   2.202       .  S
Mn42        N699   2.202   1_455  S
Mn42       Cl538   2.546       .  S
Cl43       Mn679   2.546   1_556  S
Cl43       Mn855   2.546   1_565  S
Cl43       Mn371   2.546   1_556  S
Cl43       Mn537   2.546       .  S
C44         C130   1.506       .  S
C45          C58   1.506       .  S
C46          C47   1.540       .  S
C46          C52   1.540       .  S
C46          C50   1.537       .  S
C47          H54   1.086       .  S
C47          C48   1.362       .  D
C48          C49   1.532       .  S
C48         C161   1.440       .  S
C49          C53   1.532       .  S
C49          C51   1.534       .  S
C49          H55   1.112       .  S
C50          H56   1.086       .  S
C50          C51   1.365       .  D
C51         C162   1.439       .  S
C52          H57   1.086       .  S
C52          C53   1.362       .  D
C53         C165   1.440       .  S
C58          C59   1.540       .  S
C58          C64   1.540       .  S
C58          C62   1.537       .  S
C59          H66   1.086       .  S
C59          C60   1.362       .  D
C60          C61   1.532       .  S
C60         C164   1.440       .  S
C61          C65   1.532       .  S
C61          C63   1.534       .  S
C61          H67   1.112       .  S
C62          H68   1.086       .  S
C62          C63   1.365       .  D
C63         C159   1.439       .  S
C64          H69   1.086       .  S
C64          C65   1.362       .  D
C65         C156   1.440       .  S
C70          C71   1.540       .  S
C70          C76   1.540       .  S
C70          C74   1.537       .  S
C71          H78   1.086       .  S
C71          C72   1.362       .  D
C72          C73   1.532       .  S
C72         C157   1.440       .  S
C73          C77   1.532       .  S
C73          C75   1.534       .  S
C73          H79   1.112       .  S
C74          H80   1.086       .  S
C74          C75   1.365       .  D
C75         C155   1.439       .  S
C76          H81   1.086       .  S
C76          C77   1.362       .  D
C77         C152   1.440       .  S
C82          C83   1.540       .  S
C82          C88   1.540       .  S
C82          C86   1.537       .  S
C83          H90   1.086       .  S
C83          C84   1.362       .  D
C84          C85   1.532       .  S
C84         C153   1.440       .  S
C85          C89   1.532       .  S
C85          C87   1.534       .  S
C85          H91   1.112       .  S
C86          H92   1.086       .  S
C86          C87   1.365       .  D
C87         C150   1.439       .  S
C88          H93   1.086       .  S
C88          C89   1.362       .  D
C89         C160   1.440       .  S
C94          C95   1.540       .  S
C94         C100   1.540       .  S
C94          C98   1.537       .  S
C95         H102   1.086       .  S
C95          C96   1.362       .  D
C96          C97   1.532       .  S
C96         C148   1.440       .  S
C97         C101   1.533       .  S
C97          C99   1.534       .  S
C97         H103   1.112       .  S
C98         H104   1.086       .  S
C98          C99   1.365       .  D
C99         C163   1.439       .  S
C100        H105   1.086       .  S
C100        C101   1.362       .  D
C101        C146   1.440       .  S
C106        C107   1.540       .  S
C106        C112   1.540       .  S
C106        C110   1.537       .  S
C107        H114   1.086       .  S
C107        C108   1.362       .  D
C108        C109   1.533       .  S
C108        C147   1.440       .  S
C109        C113   1.532       .  S
C109        C111   1.534       .  S
C109        H115   1.112       .  S
C110        H116   1.086       .  S
C110        C111   1.365       .  D
C111        C151   1.439       .  S
C112        H117   1.086       .  S
C112        C113   1.362       .  D
C113        C144   1.440       .  S
C118        C119   1.540       .  S
C118        C124   1.540       .  S
C118        C122   1.537       .  S
C119        H126   1.086       .  S
C119        C120   1.362       .  D
C120        C121   1.533       .  S
C120        C145   1.440       .  S
C121        C125   1.533       .  S
C121        C123   1.534       .  S
C121        H127   1.112       .  S
C122        H128   1.086       .  S
C122        C123   1.365       .  D
C123        C154   1.439       .  S
C124        H129   1.086       .  S
C124        C125   1.362       .  D
C125        C143   1.440       .  S
C130        C131   1.540       .  S
C130        C136   1.540       .  S
C130        C134   1.536       .  S
C131        H138   1.086       .  S
C131        C132   1.362       .  D
C132        C133   1.533       .  S
C132        C142   1.440       .  S
C133        C137   1.533       .  S
C133        C135   1.534       .  S
C133        H139   1.112       .  S
C134        H140   1.086       .  S
C134        C135   1.365       .  D
C135        C158   1.439       .  S
C136        H141   1.086       .  S
C136        C137   1.362       .  D
C137        C149   1.440       .  S
C142        C143   1.205       .  T
C144        C145   1.205       .  T
C146        C147   1.205       .  T
C148        C149   1.205       .  T
C150        C151   1.204       .  T
C152        C153   1.205       .  T
C154        C155   1.204       .  T
C156        C157   1.205       .  T
C158        C159   1.204       .  T
C160        C161   1.205       .  T
C162        C163   1.204       .  T
C164        C165   1.205       .  T
N166        N167   1.320       .  A
N166        N172   1.315       .  A
N167        C174   1.354       .  A
N168        N170   1.316       .  A
N168        N169   1.320       .  A
N168       Mn844   2.202   1_545  S
N169        C175   1.354       .  A
N170        N171   1.320       .  A
N170       Mn690   2.203       .  S
N171        C175   1.354       .  A
N172        N173   1.320       .  A
N172       Mn184   2.202   1_545  S
N173        C174   1.354       .  A
C174        C271   1.506       .  S
C175        C247   1.506       .  S
N176        N182   1.316       .  A
N176        N177   1.320       .  A
N176       Mn206   2.202       .  S
N177        C185   1.353       .  A
N178        N179   1.320       .  A
N178        N180   1.316       .  A
N178       Mn514   2.202       .  S
N179        C186   1.353       .  A
N180        N181   1.320       .  A
N180       Mn866   2.202       .  S
N181        C186   1.354       .  A
N182        N183   1.320       .  A
N182      Mn1174   2.203       .  S
N183        C185   1.354       .  A
Mn184       N828   2.202   1_565  S
Mn184       N508   2.202       .  S
Mn184      N1172   2.203       .  S
Mn184      Cl868   2.546       .  S
C185        C235   1.506       .  S
C186        C283   1.506       .  S
N187        N188   1.320       .  A
N187        N193   1.316       .  A
N187       Mn855   2.203       .  S
N188        C196   1.354       .  A
N189        N191   1.315       .  A
N189        N190   1.320       .  A
N189      Mn1197   2.202   1_545  S
N190        C197   1.354       .  A
N191        N192   1.320       .  A
N191       Mn195   2.202       .  S
N192        C197   1.353       .  A
N193        N194   1.320       .  A
N193       Mn537   2.202   1_545  S
N194        C196   1.354       .  A
Mn195       N665   2.203   1_556  S
Mn195       N847   2.203       .  S
Mn195      Cl703   2.546   1_545  S
C196        C211   1.506       .  S
C197        C259   1.506       .  S
N198        N199   1.320       .  A
N198        N204   1.316       .  A
N198       Mn701   2.202   1_556  S
N199        C209   1.354       .  A
N200        N201   1.320       .  A
N200        N202   1.316       .  A
N200       Mn207   2.202       .  S
N201        C210   1.354       .  A
N202        N203   1.320       .  A
N203        C210   1.354       .  A
N204        N205   1.320       .  A
N204       Mn867   2.202       .  S
N205        C209   1.353       .  A
Mn206       N840   2.202   1_455  S
Mn206       N693   2.202   1_455  S
Mn206      Cl538   2.546       .  S
Mn207      N1179   2.202   1_455  S
Mn207       N523   2.202       .  S
Mn207       N864   2.202   1_455  S
Mn207      Cl373   2.546       .  S
Cl208      Mn844   2.546       .  S
Cl208      Mn690   2.546   1_565  S
Cl208      Mn536   2.546       .  S
Cl208      Mn372   2.546       .  S
C209        C295   1.506       .  S
C210        C223   1.506       .  S
C211        C212   1.540       .  S
C211        C217   1.540       .  S
C211        C215   1.537       .  S
C212        H219   1.086       .  S
C212        C213   1.362       .  D
C213        C214   1.532       .  S
C213        C326   1.440       .  S
C214        C218   1.532       .  S
C214        C216   1.534       .  S
C214        H220   1.112       .  S
C215        H221   1.086       .  S
C215        C216   1.365       .  D
C216        C327   1.439       .  S
C217        H222   1.086       .  S
C217        C218   1.362       .  D
C218        C330   1.440       .  S
C223        C224   1.540       .  S
C223        C229   1.540       .  S
C223        C227   1.537       .  S
C224        H231   1.086       .  S
C224        C225   1.362       .  D
C225        C226   1.532       .  S
C225        C329   1.440       .  S
C226        C230   1.532       .  S
C226        C228   1.534       .  S
C226        H232   1.112       .  S
C227        H233   1.086       .  S
C227        C228   1.365       .  D
C228        C324   1.439       .  S
C229        H234   1.086       .  S
C229        C230   1.362       .  D
C230        C321   1.440       .  S
C235        C236   1.540       .  S
C235        C241   1.540       .  S
C235        C239   1.537       .  S
C236        H243   1.086       .  S
C236        C237   1.362       .  D
C237        C238   1.532       .  S
C237        C322   1.440       .  S
C238        C242   1.532       .  S
C238        C240   1.534       .  S
C238        H244   1.112       .  S
C239        H245   1.086       .  S
C239        C240   1.365       .  D
C240        C320   1.439       .  S
C241        H246   1.086       .  S
C241        C242   1.362       .  D
C242        C317   1.440       .  S
C247        C248   1.540       .  S
C247        C253   1.540       .  S
C247        C251   1.537       .  S
C248        H255   1.086       .  S
C248        C249   1.362       .  D
C249        C250   1.532       .  S
C249        C318   1.440       .  S
C250        C254   1.532       .  S
C250        C252   1.534       .  S
C250        H256   1.112       .  S
C251        H257   1.086       .  S
C251        C252   1.365       .  D
C252        C315   1.439       .  S
C253        H258   1.086       .  S
C253        C254   1.362       .  D
C254        C325   1.440       .  S
C259        C260   1.540       .  S
C259        C265   1.540       .  S
C259        C263   1.537       .  S
C260        H267   1.086       .  S
C260        C261   1.362       .  D
C261        C262   1.532       .  S
C261        C313   1.440       .  S
C262        C266   1.533       .  S
C262        C264   1.534       .  S
C262        H268   1.112       .  S
C263        H269   1.086       .  S
C263        C264   1.365       .  D
C264        C328   1.439       .  S
C265        H270   1.086       .  S
C265        C266   1.362       .  D
C266        C311   1.440       .  S
C271        C272   1.540       .  S
C271        C277   1.540       .  S
C271        C275   1.537       .  S
C272        H279   1.086       .  S
C272        C273   1.362       .  D
C273        C274   1.533       .  S
C273        C312   1.440       .  S
C274        C278   1.532       .  S
C274        C276   1.534       .  S
C274        H280   1.112       .  S
C275        H281   1.086       .  S
C275        C276   1.365       .  D
C276        C316   1.439       .  S
C277        H282   1.086       .  S
C277        C278   1.362       .  D
C278        C309   1.440       .  S
C283        C284   1.540       .  S
C283        C289   1.540       .  S
C283        C287   1.537       .  S
C284        H291   1.086       .  S
C284        C285   1.362       .  D
C285        C286   1.533       .  S
C285        C310   1.440       .  S
C286        C290   1.533       .  S
C286        C288   1.534       .  S
C286        H292   1.112       .  S
C287        H293   1.086       .  S
C287        C288   1.365       .  D
C288        C319   1.439       .  S
C289        H294   1.086       .  S
C289        C290   1.362       .  D
C290        C308   1.440       .  S
C295        C296   1.540       .  S
C295        C301   1.540       .  S
C295        C299   1.536       .  S
C296        H303   1.086       .  S
C296        C297   1.362       .  D
C297        C298   1.533       .  S
C297        C307   1.440       .  S
C298        C302   1.533       .  S
C298        C300   1.534       .  S
C298        H304   1.112       .  S
C299        H305   1.086       .  S
C299        C300   1.365       .  D
C300        C323   1.439       .  S
C301        H306   1.086       .  S
C301        C302   1.362       .  D
C302        C314   1.440       .  S
C307        C308   1.205       .  T
C309        C310   1.205       .  T
C311        C312   1.205       .  T
C313        C314   1.205       .  T
C315        C316   1.204       .  T
C317        C318   1.205       .  T
C319        C320   1.204       .  T
C321        C322   1.205       .  T
C323        C324   1.204       .  T
C325        C326   1.205       .  T
C327        C328   1.204       .  T
C329        C330   1.205       .  T
N331        N332   1.320       .  A
N331        N337   1.315       .  A
N331       Mn525   2.202   1_554  S
N332        C339   1.354       .  A
N333        N335   1.316       .  A
N333        N334   1.320       .  A
N333      Mn1009   2.202       .  S
N334        C340   1.354       .  A
N335        N336   1.320       .  A
N335      Mn1185   2.203   1_554  S
N336        C340   1.354       .  A
N337        N338   1.320       .  A
N337       Mn349   2.202       .  S
N338        C339   1.354       .  A
C339        C436   1.506       .  S
C340        C412   1.506       .  S
N341        N347   1.316       .  A
N341        N342   1.320       .  A
N341       Mn371   2.202       .  S
N342        C350   1.353       .  A
N343        N344   1.320       .  A
N343        N345   1.316       .  A
N344        C351   1.353       .  A
N345        N346   1.320       .  A
N345      Mn1031   2.202       .  S
N346        C351   1.354       .  A
N347        N348   1.320       .  A
N347       Mn679   2.203       .  S
N348        C350   1.354       .  A
Mn349       N993   2.202       .  S
Mn349       N677   2.203       .  S
Mn349     Cl1033   2.546   1_554  S
C350        C400   1.506       .  S
C351        C448   1.506       .  S
N352        N353   1.320       .  A
N352        N358   1.316       .  A
N352      Mn1020   2.203       .  S
N353        C361   1.354       .  A
N354        N356   1.315       .  A
N354        N355   1.320       .  A
N354       Mn702   2.202       .  S
N355        C362   1.354       .  A
N356        N357   1.320       .  A
N356       Mn360   2.202       .  S
N357        C362   1.353       .  A
N358        N359   1.320       .  A
N359        C361   1.354       .  A
Mn360       N496   2.202       .  S
Mn360      N1160   2.203       .  S
Mn360      N1012   2.203       .  S
Mn360     Cl1198   2.546       .  S
C361        C376   1.506       .  S
C362        C424   1.506       .  S
N363        N364   1.320       .  A
N363        N369   1.316       .  A
N363      Mn1196   2.202       .  S
N364        C374   1.354       .  A
N365        N366   1.320       .  A
N365        N367   1.316       .  A
N365       Mn372   2.202       .  S
N366        C375   1.354       .  A
N367        N368   1.320       .  A
N367       Mn536   2.202       .  S
N368        C375   1.354       .  A
N369        N370   1.320       .  A
N369      Mn1032   2.202       .  S
N370        C374   1.353       .  A
Mn371      N1005   2.202   1_455  S
Mn371      N1188   2.202   1_454  S
Mn371       N532   2.202   1_554  S
Mn372       N684   2.202   1_465  S
Mn372      N1029   2.202   1_455  S
Cl373     Mn1009   2.546   1_556  S
Cl373     Mn1185   2.546       .  S
C374        C460   1.506       .  S
C375        C388   1.506       .  S
C376        C377   1.540       .  S
C376        C382   1.540       .  S
C376        C380   1.537       .  S
C377        H384   1.086       .  S
C377        C378   1.362       .  D
C378        C379   1.532       .  S
C378        C491   1.440       .  S
C379        C383   1.532       .  S
C379        C381   1.534       .  S
C379        H385   1.112       .  S
C380        H386   1.086       .  S
C380        C381   1.365       .  D
C381        C492   1.439       .  S
C382        H387   1.086       .  S
C382        C383   1.362       .  D
C383        C495   1.440       .  S
C388        C389   1.540       .  S
C388        C394   1.540       .  S
C388        C392   1.537       .  S
C389        H396   1.086       .  S
C389        C390   1.362       .  D
C390        C391   1.532       .  S
C390        C494   1.440       .  S
C391        C395   1.532       .  S
C391        C393   1.534       .  S
C391        H397   1.112       .  S
C392        H398   1.086       .  S
C392        C393   1.365       .  D
C393        C489   1.439       .  S
C394        H399   1.086       .  S
C394        C395   1.362       .  D
C395        C486   1.440       .  S
C400        C401   1.540       .  S
C400        C406   1.540       .  S
C400        C404   1.537       .  S
C401        H408   1.086       .  S
C401        C402   1.362       .  D
C402        C403   1.532       .  S
C402        C487   1.440       .  S
C403        C407   1.532       .  S
C403        C405   1.534       .  S
C403        H409   1.112       .  S
C404        H410   1.086       .  S
C404        C405   1.365       .  D
C405        C485   1.439       .  S
C406        H411   1.086       .  S
C406        C407   1.362       .  D
C407        C482   1.440       .  S
C412        C413   1.540       .  S
C412        C418   1.540       .  S
C412        C416   1.537       .  S
C413        H420   1.086       .  S
C413        C414   1.362       .  D
C414        C415   1.532       .  S
C414        C483   1.440       .  S
C415        C419   1.532       .  S
C415        C417   1.534       .  S
C415        H421   1.112       .  S
C416        H422   1.086       .  S
C416        C417   1.365       .  D
C417        C480   1.439       .  S
C418        H423   1.086       .  S
C418        C419   1.362       .  D
C419        C490   1.440       .  S
C424        C425   1.540       .  S
C424        C430   1.540       .  S
C424        C428   1.537       .  S
C425        H432   1.086       .  S
C425        C426   1.362       .  D
C426        C427   1.532       .  S
C426        C478   1.440       .  S
C427        C431   1.533       .  S
C427        C429   1.534       .  S
C427        H433   1.112       .  S
C428        H434   1.086       .  S
C428        C429   1.365       .  D
C429        C493   1.439       .  S
C430        H435   1.086       .  S
C430        C431   1.362       .  D
C431        C476   1.440       .  S
C436        C437   1.540       .  S
C436        C442   1.540       .  S
C436        C440   1.537       .  S
C437        H444   1.086       .  S
C437        C438   1.362       .  D
C438        C439   1.533       .  S
C438        C477   1.440       .  S
C439        C443   1.532       .  S
C439        C441   1.534       .  S
C439        H445   1.112       .  S
C440        H446   1.086       .  S
C440        C441   1.365       .  D
C441        C481   1.439       .  S
C442        H447   1.086       .  S
C442        C443   1.362       .  D
C443        C474   1.440       .  S
C448        C449   1.540       .  S
C448        C454   1.540       .  S
C448        C452   1.537       .  S
C449        H456   1.086       .  S
C449        C450   1.362       .  D
C450        C451   1.533       .  S
C450        C475   1.440       .  S
C451        C455   1.533       .  S
C451        C453   1.534       .  S
C451        H457   1.112       .  S
C452        H458   1.086       .  S
C452        C453   1.365       .  D
C453        C484   1.439       .  S
C454        H459   1.086       .  S
C454        C455   1.362       .  D
C455        C473   1.440       .  S
C460        C461   1.540       .  S
C460        C466   1.540       .  S
C460        C464   1.536       .  S
C461        H468   1.086       .  S
C461        C462   1.362       .  D
C462        C463   1.533       .  S
C462        C472   1.440       .  S
C463        C467   1.533       .  S
C463        C465   1.534       .  S
C463        H469   1.112       .  S
C464        H470   1.086       .  S
C464        C465   1.365       .  D
C465        C488   1.439       .  S
C466        H471   1.086       .  S
C466        C467   1.362       .  D
C467        C479   1.440       .  S
C472        C473   1.205       .  T
C474        C475   1.205       .  T
C476        C477   1.205       .  T
C478        C479   1.205       .  T
C480        C481   1.204       .  T
C482        C483   1.205       .  T
C484        C485   1.204       .  T
C486        C487   1.205       .  T
C488        C489   1.204       .  T
C490        C491   1.205       .  T
C492        C493   1.204       .  T
C494        C495   1.205       .  T
N496        N497   1.320       .  A
N496        N502   1.315       .  A
N497        C504   1.354       .  A
N498        N500   1.316       .  A
N498        N499   1.320       .  A
N498      Mn1174   2.202       .  S
N499        C505   1.354       .  A
N500        N501   1.320       .  A
N500      Mn1020   2.203       .  S
N501        C505   1.354       .  A
N502        N503   1.320       .  A
N502       Mn514   2.202       .  S
N503        C504   1.354       .  A
C504        C601   1.506       .  S
C505        C577   1.506       .  S
N506        N512   1.316       .  A
N506        N507   1.320       .  A
N506       Mn536   2.202       .  S
N507        C515   1.353       .  A
N508        N509   1.320       .  A
N508        N510   1.316       .  A
N509        C516   1.353       .  A
N510        N511   1.320       .  A
N510      Mn1196   2.202       .  S
N511        C516   1.354       .  A
N512        N513   1.320       .  A
N512       Mn844   2.203       .  S
N513        C515   1.354       .  A
Mn514      N1158   2.202       .  S
Mn514       N842   2.203       .  S
Mn514     Cl1198   2.546       .  S
C515        C565   1.506       .  S
C516        C613   1.506       .  S
N517        N518   1.320       .  A
N517        N523   1.316       .  A
N517      Mn1185   2.203       .  S
N518        C526   1.354       .  A
N519        N521   1.315       .  A
N519        N520   1.320       .  A
N519       Mn867   2.202       .  S
N520        C527   1.354       .  A
N521        N522   1.320       .  A
N521       Mn525   2.202       .  S
N522        C527   1.353       .  A
N523        N524   1.320       .  A
N524        C526   1.354       .  A
Mn525       N995   2.203   1_556  S
Mn525      N1177   2.203       .  S
Mn525     Cl1033   2.546       .  S
C526        C541   1.506       .  S
C527        C589   1.506       .  S
N528        N529   1.320       .  A
N528        N534   1.316       .  A
N528      Mn1031   2.202   1_556  S
N529        C539   1.354       .  A
N530        N531   1.320       .  A
N530        N532   1.316       .  A
N530       Mn537   2.202       .  S
N531        C540   1.354       .  A
N532        N533   1.320       .  A
N533        C540   1.354       .  A
N534        N535   1.320       .  A
N534      Mn1197   2.202       .  S
N535        C539   1.353       .  A
Mn536      N1170   2.202   1_455  S
Mn536      N1023   2.202   1_455  S
Mn537       N849   2.202   1_465  S
Mn537      N1194   2.202   1_455  S
Cl538     Mn1174   2.546       .  S
Cl538     Mn1020   2.546       .  S
C539        C625   1.506       .  S
C540        C553   1.506       .  S
C541        C542   1.540       .  S
C541        C547   1.540       .  S
C541        C545   1.537       .  S
C542        H549   1.086       .  S
C542        C543   1.362       .  D
C543        C544   1.532       .  S
C543        C656   1.440       .  S
C544        C548   1.532       .  S
C544        C546   1.534       .  S
C544        H550   1.112       .  S
C545        H551   1.086       .  S
C545        C546   1.365       .  D
C546        C657   1.439       .  S
C547        H552   1.086       .  S
C547        C548   1.362       .  D
C548        C660   1.440       .  S
C553        C554   1.540       .  S
C553        C559   1.540       .  S
C553        C557   1.537       .  S
C554        H561   1.086       .  S
C554        C555   1.362       .  D
C555        C556   1.532       .  S
C555        C659   1.440       .  S
C556        C560   1.532       .  S
C556        C558   1.534       .  S
C556        H562   1.112       .  S
C557        H563   1.086       .  S
C557        C558   1.365       .  D
C558        C654   1.439       .  S
C559        H564   1.086       .  S
C559        C560   1.362       .  D
C560        C651   1.440       .  S
C565        C566   1.540       .  S
C565        C571   1.540       .  S
C565        C569   1.537       .  S
C566        H573   1.086       .  S
C566        C567   1.362       .  D
C567        C568   1.532       .  S
C567        C652   1.440       .  S
C568        C572   1.532       .  S
C568        C570   1.534       .  S
C568        H574   1.112       .  S
C569        H575   1.086       .  S
C569        C570   1.365       .  D
C570        C650   1.439       .  S
C571        H576   1.086       .  S
C571        C572   1.362       .  D
C572        C647   1.440       .  S
C577        C578   1.540       .  S
C577        C583   1.540       .  S
C577        C581   1.537       .  S
C578        H585   1.086       .  S
C578        C579   1.362       .  D
C579        C580   1.532       .  S
C579        C648   1.440       .  S
C580        C584   1.532       .  S
C580        C582   1.534       .  S
C580        H586   1.112       .  S
C581        H587   1.086       .  S
C581        C582   1.365       .  D
C582        C645   1.439       .  S
C583        H588   1.086       .  S
C583        C584   1.362       .  D
C584        C655   1.440       .  S
C589        C590   1.540       .  S
C589        C595   1.540       .  S
C589        C593   1.537       .  S
C590        H597   1.086       .  S
C590        C591   1.362       .  D
C591        C592   1.532       .  S
C591        C643   1.440       .  S
C592        C596   1.533       .  S
C592        C594   1.534       .  S
C592        H598   1.112       .  S
C593        H599   1.086       .  S
C593        C594   1.365       .  D
C594        C658   1.439       .  S
C595        H600   1.086       .  S
C595        C596   1.362       .  D
C596        C641   1.440       .  S
C601        C602   1.540       .  S
C601        C607   1.540       .  S
C601        C605   1.537       .  S
C602        H609   1.086       .  S
C602        C603   1.362       .  D
C603        C604   1.533       .  S
C603        C642   1.440       .  S
C604        C608   1.532       .  S
C604        C606   1.534       .  S
C604        H610   1.112       .  S
C605        H611   1.086       .  S
C605        C606   1.365       .  D
C606        C646   1.439       .  S
C607        H612   1.086       .  S
C607        C608   1.362       .  D
C608        C639   1.440       .  S
C613        C614   1.540       .  S
C613        C619   1.540       .  S
C613        C617   1.537       .  S
C614        H621   1.086       .  S
C614        C615   1.362       .  D
C615        C616   1.533       .  S
C615        C640   1.440       .  S
C616        C620   1.533       .  S
C616        C618   1.534       .  S
C616        H622   1.112       .  S
C617        H623   1.086       .  S
C617        C618   1.365       .  D
C618        C649   1.439       .  S
C619        H624   1.086       .  S
C619        C620   1.362       .  D
C620        C638   1.440       .  S
C625        C626   1.540       .  S
C625        C631   1.540       .  S
C625        C629   1.536       .  S
C626        H633   1.086       .  S
C626        C627   1.362       .  D
C627        C628   1.533       .  S
C627        C637   1.440       .  S
C628        C632   1.533       .  S
C628        C630   1.534       .  S
C628        H634   1.112       .  S
C629        H635   1.086       .  S
C629        C630   1.365       .  D
C630        C653   1.439       .  S
C631        H636   1.086       .  S
C631        C632   1.362       .  D
C632        C644   1.440       .  S
C637        C638   1.205       .  T
C639        C640   1.205       .  T
C641        C642   1.205       .  T
C643        C644   1.205       .  T
C645        C646   1.204       .  T
C647        C648   1.205       .  T
C649        C650   1.204       .  T
C651        C652   1.205       .  T
C653        C654   1.204       .  T
C655        C656   1.205       .  T
C657        C658   1.204       .  T
C659        C660   1.205       .  T
N661        N662   1.320       .  A
N661        N667   1.315       .  A
N661       Mn855   2.202   1_654  S
N662        C669   1.354       .  A
N663        N665   1.316       .  A
N663        N664   1.320       .  A
N664        C670   1.354       .  A
N665        N666   1.320       .  A
N666        C670   1.354       .  A
N667        N668   1.320       .  A
N667       Mn679   2.202   1_645  S
N668        C669   1.354       .  A
C669        C766   1.506       .  S
C670        C742   1.506       .  S
N671        N677   1.316       .  A
N671        N672   1.320       .  A
N671       Mn701   2.202       .  S
N672        C680   1.353       .  A
N673        N674   1.320       .  A
N673        N675   1.316       .  A
N673      Mn1009   2.202   1_655  S
N674        C681   1.353       .  A
N675        N676   1.320       .  A
N676        C681   1.354       .  A
N677        N678   1.320       .  A
N678        C680   1.354       .  A
Mn679      N1003   2.202   1_455  S
C680        C730   1.506       .  S
C681        C778   1.506       .  S
N682        N683   1.320       .  A
N682        N688   1.316       .  A
N683        C691   1.354       .  A
N684        N686   1.315       .  A
N684        N685   1.320       .  A
N685        C692   1.354       .  A
N686        N687   1.320       .  A
N686       Mn690   2.202   1_655  S
N687        C692   1.353       .  A
N688        N689   1.320       .  A
N688      Mn1032   2.202   1_545  S
N689        C691   1.354       .  A
Mn690       N826   2.202   1_455  S
C691        C706   1.506       .  S
C692        C754   1.506       .  S
N693        N694   1.320       .  A
N693        N699   1.316       .  A
N694        C704   1.354       .  A
N695        N696   1.320       .  A
N695        N697   1.316       .  A
N695       Mn702   2.202       .  S
N696        C705   1.354       .  A
N697        N698   1.320       .  A
N697       Mn866   2.202       .  S
N698        C705   1.354       .  A
N699        N700   1.320       .  A
N700        C704   1.353       .  A
Mn701       N862   2.202   1_554  S
Mn701     Cl1033   2.546   1_554  S
Mn702      N1018   2.202       .  S
Mn702     Cl1198   2.546       .  S
Cl703     Mn1031   2.546   1_556  S
Cl703     Mn1197   2.546       .  S
C704        C790   1.506       .  S
C705        C718   1.506       .  S
C706        C707   1.540       .  S
C706        C712   1.540       .  S
C706        C710   1.537       .  S
C707        H714   1.086       .  S
C707        C708   1.362       .  D
C708        C709   1.532       .  S
C708        C821   1.440       .  S
C709        C713   1.532       .  S
C709        C711   1.534       .  S
C709        H715   1.112       .  S
C710        H716   1.086       .  S
C710        C711   1.365       .  D
C711        C822   1.439       .  S
C712        H717   1.086       .  S
C712        C713   1.362       .  D
C713        C825   1.440       .  S
C718        C719   1.540       .  S
C718        C724   1.540       .  S
C718        C722   1.537       .  S
C719        H726   1.086       .  S
C719        C720   1.362       .  D
C720        C721   1.532       .  S
C720        C824   1.440       .  S
C721        C725   1.532       .  S
C721        C723   1.534       .  S
C721        H727   1.112       .  S
C722        H728   1.086       .  S
C722        C723   1.365       .  D
C723        C819   1.439       .  S
C724        H729   1.086       .  S
C724        C725   1.362       .  D
C725        C816   1.440       .  S
C730        C731   1.540       .  S
C730        C736   1.540       .  S
C730        C734   1.537       .  S
C731        H738   1.086       .  S
C731        C732   1.362       .  D
C732        C733   1.532       .  S
C732        C817   1.440       .  S
C733        C737   1.532       .  S
C733        C735   1.534       .  S
C733        H739   1.112       .  S
C734        H740   1.086       .  S
C734        C735   1.365       .  D
C735        C815   1.439       .  S
C736        H741   1.086       .  S
C736        C737   1.362       .  D
C737        C812   1.440       .  S
C742        C743   1.540       .  S
C742        C748   1.540       .  S
C742        C746   1.537       .  S
C743        H750   1.086       .  S
C743        C744   1.362       .  D
C744        C745   1.532       .  S
C744        C813   1.440       .  S
C745        C749   1.532       .  S
C745        C747   1.534       .  S
C745        H751   1.112       .  S
C746        H752   1.086       .  S
C746        C747   1.365       .  D
C747        C810   1.439       .  S
C748        H753   1.086       .  S
C748        C749   1.362       .  D
C749        C820   1.440       .  S
C754        C755   1.540       .  S
C754        C760   1.540       .  S
C754        C758   1.537       .  S
C755        H762   1.086       .  S
C755        C756   1.362       .  D
C756        C757   1.532       .  S
C756        C808   1.440       .  S
C757        C761   1.533       .  S
C757        C759   1.534       .  S
C757        H763   1.112       .  S
C758        H764   1.086       .  S
C758        C759   1.365       .  D
C759        C823   1.439       .  S
C760        H765   1.086       .  S
C760        C761   1.362       .  D
C761        C806   1.440       .  S
C766        C767   1.540       .  S
C766        C772   1.540       .  S
C766        C770   1.537       .  S
C767        H774   1.086       .  S
C767        C768   1.362       .  D
C768        C769   1.533       .  S
C768        C807   1.440       .  S
C769        C773   1.532       .  S
C769        C771   1.534       .  S
C769        H775   1.112       .  S
C770        H776   1.086       .  S
C770        C771   1.365       .  D
C771        C811   1.439       .  S
C772        H777   1.086       .  S
C772        C773   1.362       .  D
C773        C804   1.440       .  S
C778        C779   1.540       .  S
C778        C784   1.540       .  S
C778        C782   1.537       .  S
C779        H786   1.086       .  S
C779        C780   1.362       .  D
C780        C781   1.533       .  S
C780        C805   1.440       .  S
C781        C785   1.533       .  S
C781        C783   1.534       .  S
C781        H787   1.112       .  S
C782        H788   1.086       .  S
C782        C783   1.365       .  D
C783        C814   1.439       .  S
C784        H789   1.086       .  S
C784        C785   1.362       .  D
C785        C803   1.440       .  S
C790        C791   1.540       .  S
C790        C796   1.540       .  S
C790        C794   1.536       .  S
C791        H798   1.086       .  S
C791        C792   1.362       .  D
C792        C793   1.533       .  S
C792        C802   1.440       .  S
C793        C797   1.533       .  S
C793        C795   1.534       .  S
C793        H799   1.112       .  S
C794        H800   1.086       .  S
C794        C795   1.365       .  D
C795        C818   1.439       .  S
C796        H801   1.086       .  S
C796        C797   1.362       .  D
C797        C809   1.440       .  S
C802        C803   1.205       .  T
C804        C805   1.205       .  T
C806        C807   1.205       .  T
C808        C809   1.205       .  T
C810        C811   1.204       .  T
C812        C813   1.205       .  T
C814        C815   1.204       .  T
C816        C817   1.205       .  T
C818        C819   1.204       .  T
C820        C821   1.205       .  T
C822        C823   1.204       .  T
C824        C825   1.205       .  T
N826        N827   1.320       .  A
N826        N832   1.315       .  A
N827        C834   1.354       .  A
N828        N830   1.316       .  A
N828        N829   1.320       .  A
N829        C835   1.354       .  A
N830        N831   1.320       .  A
N831        C835   1.354       .  A
N832        N833   1.320       .  A
N832       Mn844   2.202   1_645  S
N833        C834   1.354       .  A
C834        C931   1.506       .  S
C835        C907   1.506       .  S
N836        N842   1.316       .  A
N836        N837   1.320       .  A
N836       Mn866   2.202       .  S
N837        C845   1.353       .  A
N838        N839   1.320       .  A
N838        N840   1.316       .  A
N838      Mn1174   2.202   1_655  S
N839        C846   1.353       .  A
N840        N841   1.320       .  A
N841        C846   1.354       .  A
N842        N843   1.320       .  A
N843        C845   1.354       .  A
Mn844      N1168   2.202   1_455  S
C845        C895   1.506       .  S
C846        C943   1.506       .  S
N847        N848   1.320       .  A
N847        N853   1.316       .  A
N848        C856   1.354       .  A
N849        N851   1.315       .  A
N849        N850   1.320       .  A
N850        C857   1.354       .  A
N851        N852   1.320       .  A
N851       Mn855   2.202   1_655  S
N852        C857   1.353       .  A
N853        N854   1.320       .  A
N853      Mn1197   2.202   1_545  S
N854        C856   1.354       .  A
C856        C871   1.506       .  S
C857        C919   1.506       .  S
N858        N859   1.320       .  A
N858        N864   1.316       .  A
N859        C869   1.354       .  A
N860        N861   1.320       .  A
N860        N862   1.316       .  A
N860       Mn867   2.202       .  S
N861        C870   1.354       .  A
N862        N863   1.320       .  A
N863        C870   1.354       .  A
N864        N865   1.320       .  A
N865        C869   1.353       .  A
Mn866     Cl1198   2.546       .  S
Mn867      N1183   2.202       .  S
Mn867     Cl1033   2.546       .  S
Cl868     Mn1196   2.546       .  S
Cl868     Mn1032   2.546       .  S
C869        C955   1.506       .  S
C870        C883   1.506       .  S
C871        C872   1.540       .  S
C871        C877   1.540       .  S
C871        C875   1.537       .  S
C872        H879   1.086       .  S
C872        C873   1.362       .  D
C873        C874   1.532       .  S
C873        C986   1.440       .  S
C874        C878   1.532       .  S
C874        C876   1.534       .  S
C874        H880   1.112       .  S
C875        H881   1.086       .  S
C875        C876   1.365       .  D
C876        C987   1.439       .  S
C877        H882   1.086       .  S
C877        C878   1.362       .  D
C878        C990   1.440       .  S
C883        C884   1.540       .  S
C883        C889   1.540       .  S
C883        C887   1.537       .  S
C884        H891   1.086       .  S
C884        C885   1.362       .  D
C885        C886   1.532       .  S
C885        C989   1.440       .  S
C886        C890   1.532       .  S
C886        C888   1.534       .  S
C886        H892   1.112       .  S
C887        H893   1.086       .  S
C887        C888   1.365       .  D
C888        C984   1.439       .  S
C889        H894   1.086       .  S
C889        C890   1.362       .  D
C890        C981   1.440       .  S
C895        C896   1.540       .  S
C895        C901   1.540       .  S
C895        C899   1.537       .  S
C896        H903   1.086       .  S
C896        C897   1.362       .  D
C897        C898   1.532       .  S
C897        C982   1.440       .  S
C898        C902   1.532       .  S
C898        C900   1.534       .  S
C898        H904   1.112       .  S
C899        H905   1.086       .  S
C899        C900   1.365       .  D
C900        C980   1.439       .  S
C901        H906   1.086       .  S
C901        C902   1.362       .  D
C902        C977   1.440       .  S
C907        C908   1.540       .  S
C907        C913   1.540       .  S
C907        C911   1.537       .  S
C908        H915   1.086       .  S
C908        C909   1.362       .  D
C909        C910   1.532       .  S
C909        C978   1.440       .  S
C910        C914   1.532       .  S
C910        C912   1.534       .  S
C910        H916   1.112       .  S
C911        H917   1.086       .  S
C911        C912   1.365       .  D
C912        C975   1.439       .  S
C913        H918   1.086       .  S
C913        C914   1.362       .  D
C914        C985   1.440       .  S
C919        C920   1.540       .  S
C919        C925   1.540       .  S
C919        C923   1.537       .  S
C920        H927   1.086       .  S
C920        C921   1.362       .  D
C921        C922   1.532       .  S
C921        C973   1.440       .  S
C922        C926   1.533       .  S
C922        C924   1.534       .  S
C922        H928   1.112       .  S
C923        H929   1.086       .  S
C923        C924   1.365       .  D
C924        C988   1.439       .  S
C925        H930   1.086       .  S
C925        C926   1.362       .  D
C926        C971   1.440       .  S
C931        C932   1.540       .  S
C931        C937   1.540       .  S
C931        C935   1.537       .  S
C932        H939   1.086       .  S
C932        C933   1.362       .  D
C933        C934   1.533       .  S
C933        C972   1.440       .  S
C934        C938   1.532       .  S
C934        C936   1.534       .  S
C934        H940   1.112       .  S
C935        H941   1.086       .  S
C935        C936   1.365       .  D
C936        C976   1.439       .  S
C937        H942   1.086       .  S
C937        C938   1.362       .  D
C938        C969   1.440       .  S
C943        C944   1.540       .  S
C943        C949   1.540       .  S
C943        C947   1.537       .  S
C944        H951   1.086       .  S
C944        C945   1.362       .  D
C945        C946   1.533       .  S
C945        C970   1.440       .  S
C946        C950   1.533       .  S
C946        C948   1.534       .  S
C946        H952   1.112       .  S
C947        H953   1.086       .  S
C947        C948   1.365       .  D
C948        C979   1.439       .  S
C949        H954   1.086       .  S
C949        C950   1.362       .  D
C950        C968   1.440       .  S
C955        C956   1.540       .  S
C955        C961   1.540       .  S
C955        C959   1.536       .  S
C956        H963   1.086       .  S
C956        C957   1.362       .  D
C957        C958   1.533       .  S
C957        C967   1.440       .  S
C958        C962   1.533       .  S
C958        C960   1.534       .  S
C958        H964   1.112       .  S
C959        H965   1.086       .  S
C959        C960   1.365       .  D
C960        C983   1.439       .  S
C961        H966   1.086       .  S
C961        C962   1.362       .  D
C962        C974   1.440       .  S
C967        C968   1.205       .  T
C969        C970   1.205       .  T
C971        C972   1.205       .  T
C973        C974   1.205       .  T
C975        C976   1.204       .  T
C977        C978   1.205       .  T
C979        C980   1.204       .  T
C981        C982   1.205       .  T
C983        C984   1.204       .  T
C985        C986   1.205       .  T
C987        C988   1.204       .  T
C989        C990   1.205       .  T
N991        N992   1.320       .  A
N991        N997   1.315       .  A
N991      Mn1185   2.202   1_654  S
N992        C999   1.354       .  A
N993        N995   1.316       .  A
N993        N994   1.320       .  A
N994       C1000   1.354       .  A
N995        N996   1.320       .  A
N996       C1000   1.354       .  A
N997        N998   1.320       .  A
N997      Mn1009   2.202   1_655  S
N998        C999   1.354       .  A
C999       C1096   1.506       .  S
C1000      C1072   1.506       .  S
N1001      N1007   1.316       .  A
N1001      N1002   1.320       .  A
N1001     Mn1031   2.202       .  S
N1002      C1010   1.353       .  A
N1003      N1004   1.320       .  A
N1003      N1005   1.316       .  A
N1004      C1011   1.353       .  A
N1005      N1006   1.320       .  A
N1006      C1011   1.354       .  A
N1007      N1008   1.320       .  A
N1008      C1010   1.354       .  A
C1010      C1060   1.506       .  S
C1011      C1108   1.506       .  S
N1012      N1013   1.320       .  A
N1012      N1018   1.316       .  A
N1013      C1021   1.354       .  A
N1014      N1016   1.315       .  A
N1014      N1015   1.320       .  A
N1015      C1022   1.354       .  A
N1016      N1017   1.320       .  A
N1016     Mn1020   2.202   1_655  S
N1017      C1022   1.353       .  A
N1018      N1019   1.320       .  A
N1019      C1021   1.354       .  A
Mn1020     N1156   2.202   1_455  S
C1021      C1036   1.506       .  S
C1022      C1084   1.506       .  S
N1023      N1024   1.320       .  A
N1023      N1029   1.316       .  A
N1024      C1034   1.354       .  A
N1025      N1026   1.320       .  A
N1025      N1027   1.316       .  A
N1025     Mn1032   2.202       .  S
N1026      C1035   1.354       .  A
N1027      N1028   1.320       .  A
N1027     Mn1196   2.202       .  S
N1028      C1035   1.354       .  A
N1029      N1030   1.320       .  A
N1030      C1034   1.353       .  A
Mn1031     N1192   2.202   1_554  S
C1034      C1120   1.506       .  S
C1035      C1048   1.506       .  S
C1036      C1037   1.540       .  S
C1036      C1042   1.540       .  S
C1036      C1040   1.537       .  S
C1037      H1044   1.086       .  S
C1037      C1038   1.362       .  D
C1038      C1039   1.532       .  S
C1038      C1151   1.440       .  S
C1039      C1043   1.532       .  S
C1039      C1041   1.534       .  S
C1039      H1045   1.112       .  S
C1040      H1046   1.086       .  S
C1040      C1041   1.365       .  D
C1041      C1152   1.439       .  S
C1042      H1047   1.086       .  S
C1042      C1043   1.362       .  D
C1043      C1155   1.440       .  S
C1048      C1049   1.540       .  S
C1048      C1054   1.540       .  S
C1048      C1052   1.537       .  S
C1049      H1056   1.086       .  S
C1049      C1050   1.362       .  D
C1050      C1051   1.532       .  S
C1050      C1154   1.440       .  S
C1051      C1055   1.532       .  S
C1051      C1053   1.534       .  S
C1051      H1057   1.112       .  S
C1052      H1058   1.086       .  S
C1052      C1053   1.365       .  D
C1053      C1149   1.439       .  S
C1054      H1059   1.086       .  S
C1054      C1055   1.362       .  D
C1055      C1146   1.440       .  S
C1060      C1061   1.540       .  S
C1060      C1066   1.540       .  S
C1060      C1064   1.537       .  S
C1061      H1068   1.086       .  S
C1061      C1062   1.362       .  D
C1062      C1063   1.532       .  S
C1062      C1147   1.440       .  S
C1063      C1067   1.532       .  S
C1063      C1065   1.534       .  S
C1063      H1069   1.112       .  S
C1064      H1070   1.086       .  S
C1064      C1065   1.365       .  D
C1065      C1145   1.439       .  S
C1066      H1071   1.086       .  S
C1066      C1067   1.362       .  D
C1067      C1142   1.440       .  S
C1072      C1073   1.540       .  S
C1072      C1078   1.540       .  S
C1072      C1076   1.537       .  S
C1073      H1080   1.086       .  S
C1073      C1074   1.362       .  D
C1074      C1075   1.532       .  S
C1074      C1143   1.440       .  S
C1075      C1079   1.532       .  S
C1075      C1077   1.534       .  S
C1075      H1081   1.112       .  S
C1076      H1082   1.086       .  S
C1076      C1077   1.365       .  D
C1077      C1140   1.439       .  S
C1078      H1083   1.086       .  S
C1078      C1079   1.362       .  D
C1079      C1150   1.440       .  S
C1084      C1085   1.540       .  S
C1084      C1090   1.540       .  S
C1084      C1088   1.537       .  S
C1085      H1092   1.086       .  S
C1085      C1086   1.362       .  D
C1086      C1087   1.532       .  S
C1086      C1138   1.440       .  S
C1087      C1091   1.533       .  S
C1087      C1089   1.534       .  S
C1087      H1093   1.112       .  S
C1088      H1094   1.086       .  S
C1088      C1089   1.365       .  D
C1089      C1153   1.439       .  S
C1090      H1095   1.086       .  S
C1090      C1091   1.362       .  D
C1091      C1136   1.440       .  S
C1096      C1097   1.540       .  S
C1096      C1102   1.540       .  S
C1096      C1100   1.537       .  S
C1097      H1104   1.086       .  S
C1097      C1098   1.362       .  D
C1098      C1099   1.533       .  S
C1098      C1137   1.440       .  S
C1099      C1103   1.532       .  S
C1099      C1101   1.534       .  S
C1099      H1105   1.112       .  S
C1100      H1106   1.086       .  S
C1100      C1101   1.365       .  D
C1101      C1141   1.439       .  S
C1102      H1107   1.086       .  S
C1102      C1103   1.362       .  D
C1103      C1134   1.440       .  S
C1108      C1109   1.540       .  S
C1108      C1114   1.540       .  S
C1108      C1112   1.537       .  S
C1109      H1116   1.086       .  S
C1109      C1110   1.362       .  D
C1110      C1111   1.533       .  S
C1110      C1135   1.440       .  S
C1111      C1115   1.533       .  S
C1111      C1113   1.534       .  S
C1111      H1117   1.112       .  S
C1112      H1118   1.086       .  S
C1112      C1113   1.365       .  D
C1113      C1144   1.439       .  S
C1114      H1119   1.086       .  S
C1114      C1115   1.362       .  D
C1115      C1133   1.440       .  S
C1120      C1121   1.540       .  S
C1120      C1126   1.540       .  S
C1120      C1124   1.536       .  S
C1121      H1128   1.086       .  S
C1121      C1122   1.362       .  D
C1122      C1123   1.533       .  S
C1122      C1132   1.440       .  S
C1123      C1127   1.533       .  S
C1123      C1125   1.534       .  S
C1123      H1129   1.112       .  S
C1124      H1130   1.086       .  S
C1124      C1125   1.365       .  D
C1125      C1148   1.439       .  S
C1126      H1131   1.086       .  S
C1126      C1127   1.362       .  D
C1127      C1139   1.440       .  S
C1132      C1133   1.205       .  T
C1134      C1135   1.205       .  T
C1136      C1137   1.205       .  T
C1138      C1139   1.205       .  T
C1140      C1141   1.204       .  T
C1142      C1143   1.205       .  T
C1144      C1145   1.204       .  T
C1146      C1147   1.205       .  T
C1148      C1149   1.204       .  T
C1150      C1151   1.205       .  T
C1152      C1153   1.204       .  T
C1154      C1155   1.205       .  T
N1156      N1157   1.320       .  A
N1156      N1162   1.315       .  A
N1157      C1164   1.354       .  A
N1158      N1160   1.316       .  A
N1158      N1159   1.320       .  A
N1159      C1165   1.354       .  A
N1160      N1161   1.320       .  A
N1161      C1165   1.354       .  A
N1162      N1163   1.320       .  A
N1162     Mn1174   2.202   1_655  S
N1163      C1164   1.354       .  A
C1164      C1261   1.506       .  S
C1165      C1237   1.506       .  S
N1166      N1172   1.316       .  A
N1166      N1167   1.320       .  A
N1166     Mn1196   2.202       .  S
N1167      C1175   1.353       .  A
N1168      N1169   1.320       .  A
N1168      N1170   1.316       .  A
N1169      C1176   1.353       .  A
N1170      N1171   1.320       .  A
N1171      C1176   1.354       .  A
N1172      N1173   1.320       .  A
N1173      C1175   1.354       .  A
C1175      C1225   1.506       .  S
C1176      C1273   1.506       .  S
N1177      N1178   1.320       .  A
N1177      N1183   1.316       .  A
N1178      C1186   1.354       .  A
N1179      N1181   1.315       .  A
N1179      N1180   1.320       .  A
N1180      C1187   1.354       .  A
N1181      N1182   1.320       .  A
N1181     Mn1185   2.202   1_655  S
N1182      C1187   1.353       .  A
N1183      N1184   1.320       .  A
N1184      C1186   1.354       .  A
C1186      C1201   1.506       .  S
C1187      C1249   1.506       .  S
N1188      N1189   1.320       .  A
N1188      N1194   1.316       .  A
N1189      C1199   1.354       .  A
N1190      N1191   1.320       .  A
N1190      N1192   1.316       .  A
N1190     Mn1197   2.202       .  S
N1191      C1200   1.354       .  A
N1192      N1193   1.320       .  A
N1193      C1200   1.354       .  A
N1194      N1195   1.320       .  A
N1195      C1199   1.353       .  A
C1199      C1285   1.506       .  S
C1200      C1213   1.506       .  S
C1201      C1202   1.540       .  S
C1201      C1207   1.540       .  S
C1201      C1205   1.537       .  S
C1202      H1209   1.086       .  S
C1202      C1203   1.362       .  D
C1203      C1204   1.532       .  S
C1203      C1316   1.440       .  S
C1204      C1208   1.532       .  S
C1204      C1206   1.534       .  S
C1204      H1210   1.112       .  S
C1205      H1211   1.086       .  S
C1205      C1206   1.365       .  D
C1206      C1317   1.439       .  S
C1207      H1212   1.086       .  S
C1207      C1208   1.362       .  D
C1208      C1320   1.440       .  S
C1213      C1214   1.540       .  S
C1213      C1219   1.540       .  S
C1213      C1217   1.537       .  S
C1214      H1221   1.086       .  S
C1214      C1215   1.362       .  D
C1215      C1216   1.532       .  S
C1215      C1319   1.440       .  S
C1216      C1220   1.532       .  S
C1216      C1218   1.534       .  S
C1216      H1222   1.112       .  S
C1217      H1223   1.086       .  S
C1217      C1218   1.365       .  D
C1218      C1314   1.439       .  S
C1219      H1224   1.086       .  S
C1219      C1220   1.362       .  D
C1220      C1311   1.440       .  S
C1225      C1226   1.540       .  S
C1225      C1231   1.540       .  S
C1225      C1229   1.537       .  S
C1226      H1233   1.086       .  S
C1226      C1227   1.362       .  D
C1227      C1228   1.532       .  S
C1227      C1312   1.440       .  S
C1228      C1232   1.532       .  S
C1228      C1230   1.534       .  S
C1228      H1234   1.112       .  S
C1229      H1235   1.086       .  S
C1229      C1230   1.365       .  D
C1230      C1310   1.439       .  S
C1231      H1236   1.086       .  S
C1231      C1232   1.362       .  D
C1232      C1307   1.440       .  S
C1237      C1238   1.540       .  S
C1237      C1243   1.540       .  S
C1237      C1241   1.537       .  S
C1238      H1245   1.086       .  S
C1238      C1239   1.362       .  D
C1239      C1240   1.532       .  S
C1239      C1308   1.440       .  S
C1240      C1244   1.532       .  S
C1240      C1242   1.534       .  S
C1240      H1246   1.112       .  S
C1241      H1247   1.086       .  S
C1241      C1242   1.365       .  D
C1242      C1305   1.439       .  S
C1243      H1248   1.086       .  S
C1243      C1244   1.362       .  D
C1244      C1315   1.440       .  S
C1249      C1250   1.540       .  S
C1249      C1255   1.540       .  S
C1249      C1253   1.537       .  S
C1250      H1257   1.086       .  S
C1250      C1251   1.362       .  D
C1251      C1252   1.532       .  S
C1251      C1303   1.440       .  S
C1252      C1256   1.533       .  S
C1252      C1254   1.534       .  S
C1252      H1258   1.112       .  S
C1253      H1259   1.086       .  S
C1253      C1254   1.365       .  D
C1254      C1318   1.439       .  S
C1255      H1260   1.086       .  S
C1255      C1256   1.362       .  D
C1256      C1301   1.440       .  S
C1261      C1262   1.540       .  S
C1261      C1267   1.540       .  S
C1261      C1265   1.537       .  S
C1262      H1269   1.086       .  S
C1262      C1263   1.362       .  D
C1263      C1264   1.533       .  S
C1263      C1302   1.440       .  S
C1264      C1268   1.532       .  S
C1264      C1266   1.534       .  S
C1264      H1270   1.112       .  S
C1265      H1271   1.086       .  S
C1265      C1266   1.365       .  D
C1266      C1306   1.439       .  S
C1267      H1272   1.086       .  S
C1267      C1268   1.362       .  D
C1268      C1299   1.440       .  S
C1273      C1274   1.540       .  S
C1273      C1279   1.540       .  S
C1273      C1277   1.537       .  S
C1274      H1281   1.086       .  S
C1274      C1275   1.362       .  D
C1275      C1276   1.533       .  S
C1275      C1300   1.440       .  S
C1276      C1280   1.533       .  S
C1276      C1278   1.534       .  S
C1276      H1282   1.112       .  S
C1277      H1283   1.086       .  S
C1277      C1278   1.365       .  D
C1278      C1309   1.439       .  S
C1279      H1284   1.086       .  S
C1279      C1280   1.362       .  D
C1280      C1298   1.440       .  S
C1285      C1286   1.540       .  S
C1285      C1291   1.540       .  S
C1285      C1289   1.536       .  S
C1286      H1293   1.086       .  S
C1286      C1287   1.362       .  D
C1287      C1288   1.533       .  S
C1287      C1297   1.440       .  S
C1288      C1292   1.533       .  S
C1288      C1290   1.534       .  S
C1288      H1294   1.112       .  S
C1289      H1295   1.086       .  S
C1289      C1290   1.365       .  D
C1290      C1313   1.439       .  S
C1291      H1296   1.086       .  S
C1291      C1292   1.362       .  D
C1292      C1304   1.440       .  S
C1297      C1298   1.205       .  T
C1299      C1300   1.205       .  T
C1301      C1302   1.205       .  T
C1303      C1304   1.205       .  T
C1305      C1306   1.204       .  T
C1307      C1308   1.205       .  T
C1309      C1310   1.204       .  T
C1311      C1312   1.205       .  T
C1313      C1314   1.204       .  T
C1315      C1316   1.205       .  T
C1317      C1318   1.204       .  T
C1319      C1320   1.205       .  T
