geometry optimzed in LAMMPS
_audit_creation_date              2020-12-01 
_audit_creation_method            'lammps2cif' 
_symmetry_space_group_name_H-M    'P1' 
_symmetry_Int_Tables_number       1 
_symmetry_cell_setting            triclinic 
loop_ 
_symmetry_equiv_pos_as_xyz 
  x,y,z 
_cell_length_a                    42.18082817 
_cell_length_b                    42.22928595836172 
_cell_length_c                    42.25543942336093 
_cell_angle_alpha                 89.48808138228848 
_cell_angle_beta                  90.22959359517138 
_cell_angle_gamma                 90.1651037733076 
loop_ 
_atom_site_label 
_atom_site_type_symbol 
_atom_site_fract_x 
_atom_site_fract_y 
_atom_site_fract_z 
_atom_site_charge 
C1          C  0.46245021  0.15739374  0.04388914     0.30200
C2          C  0.00839409  0.13977569  0.49602028     0.30200
C3          C  0.45105623  0.13920065  0.51690652    -0.06000
C4          C  0.47793420  0.18506052  0.02589752    -0.06800
C5          C  0.99074770  0.13377667  0.05274387    -0.06700
C6          C  0.47274422  0.12999801  0.49326059    -0.06000
C7          C  0.00367236  0.17808138  0.50187328    -0.06800
C8          C  0.01140644  0.12413783  0.02880499    -0.06700
C9          C  0.45559752  0.12625607  0.46619049    -0.32000
N10         N  0.42497346  0.13240664  0.47224844     0.14500
C11         C  0.42179048  0.14114806  0.50258708    -0.32100
H12         H  0.40052129  0.15131844  0.51235111     0.16400
C13         C  0.01309596  0.20909405  0.49140819    -0.31000
N14         N  0.49405374  0.23229018  0.00710218     0.13200
C15         C  0.47489828  0.21772096  0.02862163    -0.31000
C16         C  0.03950677  0.11611374  0.04308198    -0.31300
N17         N  0.03674343  0.12128017  0.07416950     0.13700
H18         H  0.06176162  0.11075763  0.03185281     0.16300
C19         C  0.00771351  0.13248386  0.08045650    -0.31300
H20         H  0.00119894  0.14231830  0.10302260     0.16300
H21         H  0.46014088  0.22950921  0.04485122     0.16300
H22         H  0.46504276  0.12317236  0.44265809     0.16400
H23         H  0.03032867  0.21356729  0.47230821     0.16300
C24         C  0.02961604  0.34244221  0.46594504     0.30200
C25         C  0.48378357  0.35982767  0.01184011     0.30200
C26         C  0.49860767  0.35890779  0.45468447    -0.06000
C27         C  0.01633530  0.31467143  0.48556746    -0.06800
C28         C  0.04008924  0.36028917  0.99295715    -0.06700
C29         C  0.47533176  0.36771606  0.97770861    -0.06000
C30         C  0.49072752  0.32153280  0.00864337    -0.06800
C31         C  0.51753202  0.37304396  0.01429622    -0.06700
C32         C  0.44761380  0.36960590  0.46307179    -0.32000
N33         N  0.45191841  0.36457335  0.43198654     0.14500
C34         C  0.48229029  0.35725669  0.42659374    -0.32100
H35         H  0.49071554  0.34906600  0.40400917     0.16400
C36         C  0.48168035  0.29059951  0.01970611    -0.31000
N37         N  0.49704838  0.26647095  0.00349167     0.13200
C38         C  0.01989620  0.28205376  0.48306707    -0.31000
C39         C  0.03471248  0.37561207  0.04307002    -0.31300
N40         N  0.06539689  0.36897305  0.03823630     0.13700
H41         H  0.02493436  0.37998972  0.06620210     0.16300
C42         C  0.06905985  0.35896702  0.00826015    -0.31300
H43         H  0.09034387  0.34792911  0.99951447     0.16300
H44         H  0.03447066  0.27036908  0.46648811     0.16300
H45         H  0.42477770  0.37331133  0.47400586     0.16400
H46         H  0.46433848  0.28628100  0.03860016     0.16300
C47         C  0.13695575  0.00845109  0.49526575     0.30200
C48         C  0.15456429  0.45812936  0.03751508     0.30200
C49         C  0.12622952  0.47520998  0.48829835    -0.06000
C50         C  0.17515278  0.00315950  0.50056489    -0.06800
C51         C  0.12449852  0.00925575  0.02834373    -0.06700
C52         C  0.13521550  0.45146498  0.51018555    -0.06000
C53         C  0.18219840  0.47601269  0.02151342    -0.06800
C54         C  0.13340611  0.98506181  0.04999226    -0.06700
C55         C  0.13585952  0.42343010  0.49399718    -0.32000
N56         N  0.12787505  0.42911016  0.46392047     0.14500
C57         C  0.12287462  0.46023301  0.45955966    -0.32100
H58         H  0.11955420  0.47109075  0.43651803     0.16400
C59         C  0.21494736  0.47373449  0.02433292    -0.31000
N60         N  0.22896064  0.49552753  0.00510639     0.13200
C61         C  0.20583232  0.01402781  0.49105918    -0.31000
C62         C  0.13657010  0.99894402  0.07909539    -0.31300
N63         N  0.13040845  0.02993343  0.07602145     0.13700
H64         H  0.14685399  0.98848617  0.10014947     0.16300
C65         C  0.12386467  0.03678405  0.04554826    -0.31300
H66         H  0.12178948  0.06062932  0.03618137     0.16300
H67         H  0.20984951  0.03285667  0.47390277     0.16300
H68         H  0.14508450  0.40086391  0.50179751     0.16400
H69         H  0.22746341  0.45733369  0.03952184     0.16300
C70         C  0.35622504  0.49263094  0.01452087     0.30200
C71         C  0.33827620  0.03940405  0.47223229     0.30200
C72         C  0.36891623  0.49036839  0.98057913    -0.06000
C73         C  0.31800156  0.49580700  0.00791157    -0.06800
C74         C  0.36266274  0.02610952  0.02353082    -0.06700
C75         C  0.36066811  0.51407940  0.45860868    -0.06000
C76         C  0.31089300  0.02042581  0.48700314    -0.06800
C77         C  0.35351754  0.04954426  0.00168071    -0.06700
C78         C  0.35953496  0.49923190  0.42979612    -0.32000
N79         N  0.36943314  0.46919787  0.43368451     0.14500
C80         C  0.37660265  0.46403647  0.46426948    -0.32100
H81         H  0.38086055  0.44073122  0.47416217     0.16400
C82         C  0.27826244  0.02279457  0.48399756    -0.31000
N83         N  0.26159469  0.99905900  0.00150463     0.13200
C84         C  0.28758012  0.48414023  0.01748441    -0.31000
C85         C  0.35292364  0.07767211  0.01757686    -0.31300
N86         N  0.36106312  0.07212995  0.04767076     0.13700
H87         H  0.34427910  0.10039655  0.00941825     0.16300
C88         C  0.36587309  0.04091837  0.05230101    -0.31300
H89         H  0.36966684  0.02991190  0.07520588     0.16300
H90         H  0.28400794  0.46562330  0.03501873     0.16300
H91         H  0.34792709  0.50803895  0.40865075     0.16400
H92         H  0.26589039  0.03944488  0.46892339     0.16300
C93         C  0.48698897  0.48775644  0.14393623     0.30200
C94         C  0.03260722  0.03034734  0.16078258     0.30200
C95         C  0.48334410  0.02110800  0.13181329    -0.06000
C96         C  0.49169443  0.49402576  0.18215236    -0.06800
C97         C  0.52136618  0.48172169  0.13436470    -0.06700
C98         C  0.50582468  0.04379334  0.14138893    -0.06000
C99         C  0.01596604  0.01441513  0.18897819    -0.06800
C100        C  0.04611095  0.50298831  0.14334614    -0.06700
C101        C  0.49043951  0.07237305  0.14198309    -0.32000
N102        N  0.46066659  0.06797589  0.13201226     0.14500
C103        C  0.45579837  0.03721637  0.12594806    -0.32100
H104        H  0.43261292  0.02710816  0.12191775     0.16400
C105        C  0.01904987  0.01838684  0.22145606    -0.31000
N106        N  0.49759948  0.00121915  0.23751756     0.13200
C107        C  0.48099480  0.48519048  0.21323040    -0.31000
C108        C  0.07488609  0.48808392  0.14435106    -0.31300
N109        N  0.07022203  0.45752227  0.13703118     0.13700
H110        H  0.09693765  0.49743850  0.15336825     0.16300
C111        C  0.03919397  0.45194722  0.13235659    -0.31300
H112        H  0.02894424  0.42862025  0.12952388     0.16300
H113        H  0.46258446  0.46775526  0.21781925     0.16300
H114        H  0.49844149  0.09406995  0.15282156     0.16400
H115        H  0.03516525  0.03450984  0.23288267     0.16300
C116        C  0.00424627  0.01231143  0.36427236     0.30200
C117        C  0.45705680  0.46978536  0.34679047     0.30200
C118        C  0.46977538  0.02162779  0.37335490    -0.06000
C119        C  0.00033591  0.00522269  0.32598694    -0.06800
C120        C  0.00619276  0.47897783  0.37716784    -0.06700
C121        C  0.44638215  0.99966713  0.36466726    -0.06000
C122        C  0.47498290  0.48452495  0.31869541    -0.06800
C123        C  0.98293331  0.45675808  0.36794109    -0.06700
C124        C  0.41800574  0.01536656  0.36475368    -0.32000
N125        N  0.42346217  0.04546920  0.37286365     0.14500
C126        C  0.45469200  0.05014422  0.37735872    -0.32100
H127        H  0.46539372  0.07302152  0.38152835     0.16400
C128        C  0.47220992  0.48059867  0.28620655    -0.31000
N129        N  0.49337932  0.49963293  0.27116116     0.13200
C130        C  0.01126082  0.01353302  0.29474597    -0.31000
C131        C  0.99763354  0.42771154  0.36767033    -0.31300
N132        N  0.02777918  0.43163862  0.37737776     0.13700
H133        H  0.98856164  0.40622038  0.35724790     0.16300
C134        C  0.03331890  0.46236394  0.38267044    -0.31300
H135        H  0.05687705  0.47217249  0.38524657     0.16300
H136        H  0.02978161  0.03089360  0.29000125     0.16300
H137        H  0.39513831  0.00704481  0.35669578     0.16400
H138        H  0.45577041  0.46500098  0.27459499     0.16300
O139        O  0.31998741  0.39809544  0.38811769    -0.85200
O140        O  0.34889154  0.34145766  0.37469972    -0.82200
C141        C  0.36941587  0.32242098  0.36458993     0.98300
O142        O  0.39624281  0.33266477  0.35501406    -0.82200
O143        O  0.38924555  0.37191460  0.30324831    -0.84900
C144        C  0.37917410  0.39504213  0.28725548     1.02800
O145        O  0.37238645  0.42087600  0.30007255    -0.77600
O146        O  0.32043441  0.40954817  0.33785438    -0.77800
C147        C  0.30592341  0.39906851  0.36178929     1.02800
O148        O  0.37667873  0.41764749  0.41837476    -0.85100
O149        O  0.40101055  0.35904874  0.41264402    -0.82200
C150        C  0.42894259  0.36809819  0.40794317     0.98300
O151        O  0.43686850  0.38054729  0.38214987    -0.82200
O152        O  0.43447707  0.41807795  0.32997474    -0.84800
C153        C  0.43000419  0.44558003  0.34133822     1.02800
O154        O  0.40273425  0.45297563  0.35058400    -0.77700
O155        O  0.35073379  0.44914638  0.38602941    -0.77800
C156        C  0.36585259  0.44451911  0.41154970     1.02800
Cr157      Cr  0.36256261  0.38016839  0.39595129     1.93700
Cr158      Cr  0.41179292  0.37698630  0.34348938     1.93200
Cr159      Cr  0.36246964  0.43059540  0.34447333     1.39100
O160        O  0.37895681  0.39562774  0.36083341    -1.22900
O161        O  0.36639487  0.14860835  0.34521040    -0.85200
O162        O  0.37815761  0.17705086  0.40163068    -0.82200
C163        C  0.35196916  0.19121271  0.40033527     0.98300
O164        O  0.32756682  0.17669949  0.41000340    -0.82200
O165        O  0.28994706  0.12365618  0.42068022    -0.84900
C166        C  0.27798953  0.11589263  0.39451474     1.02800
O167        O  0.29491027  0.10630851  0.37223820    -0.77600
O168        O  0.34835039  0.10056859  0.33653008    -0.77800
C169        C  0.35748299  0.12773116  0.32625297     1.02800
O170        O  0.40390855  0.09596808  0.36463562    -0.85100
O171        O  0.40806983  0.12109792  0.42232119    -0.82200
C172        C  0.40152489  0.13324999  0.44839238     0.98300
O173        O  0.37527391  0.14709176  0.45269757    -0.82200
O174        O  0.33982101  0.09441737  0.45580826    -0.84800
C175        C  0.33149597  0.06677421  0.44830523     1.02800
O176        O  0.32006492  0.06223893  0.42073860    -0.77700
O177        O  0.37352037  0.06051253  0.38692513    -0.77800
C178        C  0.39945662  0.06837416  0.37505434     1.02800
Cr179      Cr  0.38665925  0.13472487  0.38436232     1.93700
Cr180      Cr  0.33391528  0.13468668  0.43252122     1.93200
Cr181      Cr  0.33501407  0.08474029  0.38013885     1.39100
O182        O  0.35132472  0.11805797  0.39876204    -1.22900
O183        O  0.05898604  0.14591425  0.41956426    -0.85200
O184        O  0.06855981  0.11184276  0.36729437    -0.82200
C185        C  0.07942375  0.09039924  0.35019283     0.98300
O186        O  0.08042850  0.06230041  0.36025009    -0.82200
O187        O  0.13334168  0.06711661  0.39326693    -0.84900
C188        C  0.15145444  0.07980080  0.41279336     1.02800
O189        O  0.14265360  0.08504360  0.44062688    -0.77600
O190        O  0.10826268  0.13784308  0.43137001    -0.77800
C191        C  0.08691607  0.15556866  0.42048471     1.02800
O192        O  0.02018304  0.10416797  0.44839915    -0.85100
O193        O  0.02291498  0.06505992  0.38538982    -0.82200
C194        C  0.02771764  0.03509604  0.38455401     0.98300
O195        O  0.05001138  0.02435166  0.40287221    -0.82200
O196        O  0.11315116  0.02594543  0.44281954    -0.84800
C197        C  0.11724821  0.03268021  0.47225381     1.02800
O198        O  0.10238686  0.05734461  0.48257998    -0.77700
O199        O  0.06122381  0.11915333  0.47711062    -0.77800
C200        C  0.03111898  0.12064502  0.47184102     1.02800
Cr201      Cr  0.04511896  0.10349314  0.40698504     1.93700
Cr202      Cr  0.09251046  0.04737333  0.40298046     1.93200
Cr203      Cr  0.10046255  0.09814263  0.45564516     1.39100
O204        O  0.07805557  0.08157173  0.42345512    -1.22900
O205        O  0.15607434  0.37664493  0.36027610    -0.85200
O206        O  0.10030239  0.39141867  0.33134976    -0.82200
C207        C  0.10175749  0.36601635  0.31649484     0.98300
O208        O  0.09260261  0.34064690  0.32999156    -0.82200
O209        O  0.08196707  0.29892528  0.38052284    -0.84900
C210        C  0.10719175  0.28532259  0.38924402     1.02800
O211        O  0.12995466  0.30110391  0.39989620    -0.77600
O212        O  0.16653099  0.35445579  0.40655807    -0.77800
C213        C  0.17570335  0.36520378  0.37972727     1.02800
O214        O  0.13754436  0.41140230  0.41345982    -0.85100
O215        O  0.07855354  0.41617607  0.38868326    -0.82200
C216        C  0.05248414  0.40935091  0.37594703     0.98300
O217        O  0.04901719  0.38408362  0.36050694    -0.82200
O218        O  0.04580412  0.34593574  0.41125471    -0.84800
C219        C  0.05358122  0.33693906  0.43874136     1.02800
O220        O  0.08149185  0.32621629  0.44352111    -0.77700
O221        O  0.11661206  0.37880165  0.44754988    -0.77800
C222        C  0.12726506  0.40555899  0.44059908     1.02800
Cr223      Cr  0.11717483  0.39627409  0.37447835     1.93700
Cr224      Cr  0.06969948  0.34302319  0.37139010     1.93200
Cr225      Cr  0.12250930  0.34130541  0.42189067     1.39100
O226        O  0.10337732  0.35967469  0.38926734    -1.22900
O227        O  0.10902252  0.32343985  0.11214477    -0.85200
O228        O  0.12359769  0.35340895  0.16698791    -0.82200
C229        C  0.13487124  0.37387335  0.18522550     0.98300
O230        O  0.14469164  0.40053896  0.17437178    -0.82200
O231        O  0.19713163  0.39314895  0.13835416    -0.84900
C232        C  0.21301420  0.38330083  0.11564328     1.02800
O233        O  0.19993552  0.37348917  0.09062121    -0.77600
O234        O  0.15959848  0.32169447  0.10274409    -0.77800
C235        C  0.13464962  0.30823723  0.11279358     1.02800
O236        O  0.08165978  0.38027770  0.08901869    -0.85100
O237        O  0.08850796  0.40701117  0.14688056    -0.82200
C238        C  0.09397698  0.43426362  0.13610861     0.98300
O239        O  0.11999242  0.44087139  0.12384013    -0.82200
O240        O  0.17270177  0.43553446  0.08890186    -0.84800
C241        C  0.16079376  0.43078683  0.06160570     1.02800
O242        O  0.15113757  0.40333284  0.05487056    -0.77700
O243        O  0.11358873  0.35207119  0.05973024    -0.77800
C244        C  0.08806670  0.36740953  0.06309626     1.02800
Cr245      Cr  0.10321842  0.36702694  0.12772177     1.93700
Cr246      Cr  0.15745217  0.41503111  0.13031986     1.93200
Cr247      Cr  0.15544767  0.36347061  0.07931329     1.39100
O248        O  0.13925288  0.38175844  0.11271452    -1.22900
O249        O  0.40859065  0.35419553  0.06222709    -0.85200
O250        O  0.35809217  0.38871576  0.07254321    -0.82200
C251        C  0.34066358  0.40863362  0.08524247     0.98300
O252        O  0.35016681  0.43667801  0.08861588    -0.82200
O253        O  0.38525030  0.42601421  0.13982364    -0.84900
C254        C  0.40557395  0.41359441  0.15764172     1.02800
O255        O  0.43354014  0.41039695  0.14846581    -0.77600
O256        O  0.42312345  0.36119056  0.11105485    -0.77800
C257        C  0.41167878  0.34388112  0.08988739     1.02800
O258        O  0.43864563  0.39770388  0.02528331    -0.85100
O259        O  0.37704996  0.43872072  0.03028734    -0.82200
C260        C  0.37574253  0.46832402  0.03711263     0.98300
O261        O  0.39253338  0.47764255  0.06099784    -0.82200
O262        O  0.43328817  0.47076121  0.12274110    -0.84800
C263        C  0.46315611  0.46460572  0.12442164     1.02800
O264        O  0.47323073  0.44129045  0.10747837    -0.77700
O265        O  0.46783444  0.38069817  0.06515920    -0.77800
C266        C  0.46154366  0.37986103  0.03540278     1.02800
Cr267      Cr  0.39750185  0.39806120  0.05008327     1.93700
Cr268      Cr  0.39336890  0.45048529  0.10117733     1.93200
Cr269      Cr  0.44707103  0.40046592  0.10492093     1.39100
O270        O  0.41423103  0.41792827  0.08392922    -1.22900
O271        O  0.11293531  0.16359824  0.11804936    -0.85200
O272        O  0.16502604  0.13015686  0.13330768    -0.82200
C273        C  0.18341233  0.10978456  0.14496381     0.98300
O274        O  0.17282985  0.08302765  0.15454735    -0.82200
O275        O  0.13392548  0.09115434  0.20597421    -0.84900
C276        C  0.11083124  0.10213495  0.22081743     1.02800
O277        O  0.08611146  0.11139369  0.20674388    -0.77600
O278        O  0.10010306  0.16387228  0.16819140    -0.77800
C279        C  0.11049683  0.17817301  0.14386135     1.02800
O280        O  0.08779325  0.10819185  0.08857839    -0.85100
O281        O  0.14427635  0.07894672  0.09582976    -0.82200
C282        C  0.13242821  0.05209650  0.10079336     0.98300
O283        O  0.12157532  0.04487885  0.12732543    -0.82200
O284        O  0.08483897  0.05045504  0.17871607    -0.84800
C285        C  0.05787266  0.05630810  0.16629121     1.02800
O286        O  0.05208370  0.08386638  0.15617982    -0.77700
O287        O  0.05966446  0.13658537  0.12109958    -0.77800
C288        C  0.06232275  0.12161871  0.09560505     1.02800
Cr289      Cr  0.12642428  0.11911779  0.11145978     1.93700
Cr290      Cr  0.12736449  0.06999053  0.16540476     1.93200
Cr291      Cr  0.07693632  0.12275292  0.16244632     1.39100
O292        O  0.11060795  0.10405935  0.14698321    -1.22900
O293        O  0.39004117  0.11119038  0.17931204    -0.85200
O294        O  0.33494970  0.12883479  0.14992270    -0.82200
C295        C  0.31591725  0.13888327  0.12916765     0.98300
O296        O  0.32595355  0.14829094  0.10224874    -0.82200
O297        O  0.36410191  0.19996106  0.11049599    -0.84900
C298        C  0.38689684  0.21579483  0.12122159     1.02800
O299        O  0.41225416  0.20282563  0.13019098    -0.77600
O300        O  0.40018069  0.16149916  0.18054777    -0.77800
C301        C  0.39026754  0.13657165  0.19426974     1.02800
O302        O  0.40982615  0.08410500  0.12258898    -0.85100
O303        O  0.35188533  0.09174988  0.09745802    -0.82200
C304        C  0.36311376  0.09614016  0.07041750     0.98300
O305        O  0.37568193  0.12202801  0.06300547    -0.82200
O306        O  0.41148119  0.17487432  0.06666666    -0.84800
C307        C  0.43899157  0.16340288  0.07134100     1.02800
O308        O  0.44657701  0.15423609  0.09886118    -0.77700
O309        O  0.44116055  0.11588703  0.14933829    -0.77800
C310        C  0.43638204  0.09049818  0.13429308     1.02800
Cr311      Cr  0.37271630  0.10659130  0.13637479     1.93700
Cr312      Cr  0.37040709  0.16027292  0.08796586     1.93200
Cr313      Cr  0.42271863  0.15796672  0.13889168     1.39100
O314        O  0.38856693  0.14210270  0.12099288    -1.22900
C315        C  0.22646393  0.14245786  0.12306635    -0.12100
C316        C  0.21756083  0.11771462  0.14385513     0.04900
C317        C  0.24140257  0.10187341  0.16117964    -0.07400
C318        C  0.27302618  0.11064172  0.15693330    -0.08100
C319        C  0.28183085  0.13457879  0.13527055    -0.02700
C320        C  0.25799344  0.15079296  0.11844895     0.04200
N321        N  0.26476302  0.17569954  0.09640900     0.66700
H322        H  0.20896066  0.15513510  0.10925717     0.15600
H323        H  0.29081793  0.09759577  0.16987071     0.15300
N324        N  0.23461691  0.07692458  0.18314976     0.74400
O325        O  0.26413701  0.16938574  0.06727718    -0.39100
O326        O  0.25940744  0.20379638  0.10474263    -0.39000
O327        O  0.24064461  0.04888531  0.17507019    -0.39700
O328        O  0.23452155  0.08338230  0.21225129    -0.39800
C329        C  0.37935242  0.26033011  0.08616666    -0.12100
C330        C  0.38660639  0.24980622  0.11679097     0.04900
C331        C  0.40012910  0.27071867  0.13870288    -0.07400
C332        C  0.40684918  0.30149528  0.12931075    -0.08100
C333        C  0.40199328  0.31153001  0.09799080    -0.02700
C334        C  0.38782591  0.29054726  0.07615401     0.04200
N335        N  0.38366196  0.29809390  0.04335932     0.66700
H336        H  0.36989929  0.24406153  0.06888680     0.15600
H337        H  0.41700843  0.31711572  0.14638186     0.15300
N338        N  0.40800579  0.26133003  0.17030404     0.74400
O339        O  0.40382148  0.28780900  0.02405097    -0.39100
O340        O  0.35598539  0.30342877  0.03333271    -0.39000
O341        O  0.43672486  0.25597790  0.17684191    -0.39700
O342        O  0.38980308  0.26970646  0.19231121    -0.39800
C343        C  0.14765135  0.21962131  0.12649629    -0.12100
C344        C  0.12010617  0.21180744  0.14353794     0.04900
C345        C  0.10040247  0.23635929  0.15394908    -0.07400
C346        C  0.10712178  0.26754909  0.14486571    -0.08100
C347        C  0.13321493  0.27525449  0.12545120    -0.02700
C348        C  0.15447083  0.25091174  0.11751797     0.04200
N349        N  0.18202848  0.25665021  0.09888061     0.66700
H350        H  0.16322017  0.20103312  0.11862434     0.15600
H351        H  0.09062670  0.28565676  0.15173586     0.15300
N352        N  0.07191556  0.23028262  0.17112898     0.74400
O353        O  0.20852996  0.25758069  0.11279718    -0.39100
O354        O  0.18123980  0.24937922  0.06998624    -0.39000
O355        O  0.07180780  0.23553247  0.20047805    -0.39700
O356        O  0.04589620  0.23079494  0.15628456    -0.39800
C357        C  0.26438713  0.36354003  0.10028544    -0.12100
C358        C  0.24718912  0.38658351  0.11600403     0.04900
C359        C  0.26195065  0.41525528  0.12470277    -0.07400
C360        C  0.29271381  0.42134168  0.11491187    -0.08100
C361        C  0.30913585  0.39945379  0.09653735    -0.02700
C362        C  0.29512340  0.36960595  0.09041677     0.04200
N363        N  0.31073284  0.34528837  0.07337113     0.66700
H364        H  0.25323454  0.34140131  0.09389163     0.15600
H365        H  0.30321581  0.44387466  0.12086899     0.15300
N366        N  0.24561152  0.43981531  0.14089454     0.74400
O367        O  0.32230044  0.32251555  0.08907248    -0.39100
O368        O  0.30219760  0.34052669  0.04514443    -0.39000
O369        O  0.25268934  0.44463895  0.16949869    -0.39700
O370        O  0.23431615  0.46243697  0.12475562    -0.39800
C371        C  0.11122023  0.33991972  0.26542658    -0.12100
C372        C  0.11411374  0.36695690  0.28389144     0.04900
C373        C  0.12880613  0.39437064  0.27058993    -0.07400
C374        C  0.13825649  0.39449058  0.23913871    -0.08100
C375        C  0.13240810  0.36855222  0.21974024    -0.02700
C376        C  0.11974983  0.34045936  0.23357151     0.04200
N377        N  0.11346133  0.31258163  0.21580344     0.66700
H378        H  0.10090330  0.31857277  0.27523814     0.15600
H379        H  0.14816781  0.41608556  0.22946831     0.15300
N380        N  0.13320377  0.42317412  0.28759568     0.74400
O381        O  0.13253011  0.28973264  0.21849760    -0.39100
O382        O  0.08502341  0.30671866  0.20850342    -0.39000
O383        O  0.16104125  0.43081559  0.29552877    -0.39700
O384        O  0.11312351  0.44495319  0.28352582    -0.39800
C385        C  0.09407976  0.12705984  0.26938614    -0.12100
C386        C  0.11054293  0.10237135  0.25515765     0.04900
C387        C  0.11970085  0.07580940  0.27329667    -0.07400
C388        C  0.11056703  0.07373104  0.30471743    -0.08100
C389        C  0.09129306  0.09696001  0.31824261    -0.02700
C390        C  0.08387932  0.12443831  0.30049378     0.04200
N391        N  0.06434815  0.14908817  0.31223554     0.66700
H392        H  0.08689496  0.14747737  0.25553037     0.15600
H393        H  0.11724982  0.05278061  0.31796306     0.15300
N394        N  0.13500648  0.04902646  0.25982929     0.74400
O395        O  0.03528891  0.14868685  0.30495591    -0.39100
O396        O  0.07735728  0.17540494  0.31783228    -0.39000
O397        O  0.16392065  0.04462984  0.26617374    -0.39700
O398        O  0.11817602  0.02542211  0.25248220    -0.39800
C399        C  0.07884898  0.23580048  0.38142462    -0.12100
C400        C  0.10719429  0.25043844  0.39056028     0.04900
C401        C  0.13066889  0.23208428  0.40617315    -0.07400
C402        C  0.12411702  0.20058899  0.41429498    -0.08100
C403        C  0.09401178  0.18761128  0.40875953    -0.02700
C404        C  0.07125791  0.20563494  0.39176706     0.04200
N405        N  0.03916738  0.19553436  0.38718437     0.66700
H406        H  0.06060633  0.24885872  0.36895668     0.15600
H407        H  0.14206413  0.18695940  0.42652197     0.15300
N408        N  0.16065262  0.24486156  0.41534543     0.74400
O409        O  0.03042128  0.18760302  0.35982589    -0.39100
O410        O  0.01843379  0.20567150  0.40597227    -0.39000
O411        O  0.16511085  0.25139601  0.44411144    -0.39700
O412        O  0.18440192  0.23893242  0.39836181    -0.39800
C413        C  0.35436650  0.10833817  0.27188864    -0.12100
C414        C  0.36167537  0.13337876  0.29189974     0.04900
C415        C  0.37643615  0.16087110  0.27880940    -0.07400
C416        C  0.38457763  0.16183237  0.24673982    -0.08100
C417        C  0.37914451  0.13575069  0.22738276    -0.02700
C418        C  0.36320695  0.10888230  0.24030592     0.04200
N419        N  0.35636295  0.08108305  0.22247699     0.66700
H420        H  0.34305947  0.08718273  0.28100847     0.15600
H421        H  0.39622848  0.18266785  0.23734018     0.15300
N422        N  0.38468265  0.18773150  0.29742529     0.74400
O423        O  0.37492275  0.05781802  0.22523465    -0.39100
O424        O  0.32791048  0.07580726  0.21481638    -0.39000
O425        O  0.41335625  0.19135827  0.30527590    -0.39700
O426        O  0.36717471  0.21186730  0.29565811    -0.39800
C427        C  0.19301807  0.11902664  0.41693422    -0.12100
C428        C  0.18254854  0.09090927  0.40315466     0.04900
C429        C  0.20168402  0.07541298  0.38085749    -0.07400
C430        C  0.23211511  0.08676771  0.37526679    -0.08100
C431        C  0.24378646  0.11282565  0.39203747    -0.02700
C432        C  0.22341187  0.13007578  0.41168811     0.04200
N433        N  0.23313904  0.15831996  0.42733158     0.66700
H434        H  0.17785232  0.13213986  0.43263347     0.15600
H435        H  0.24749112  0.07327029  0.36012771     0.15300
N436        N  0.19213984  0.04685439  0.36564040     0.74400
O437        O  0.22448619  0.18450686  0.41564440    -0.39100
O438        O  0.23933961  0.15682949  0.45654564    -0.39000
O439        O  0.18506198  0.04821079  0.33662309    -0.39700
O440        O  0.20172590  0.02084447  0.37703455    -0.39800
C441        C  0.40594627  0.37775467  0.23984871    -0.12100
C442        C  0.38024426  0.39368295  0.25292887     0.04900
C443        C  0.36062275  0.41252640  0.23343031    -0.07400
C444        C  0.36876436  0.41734748  0.20199823    -0.08100
C445        C  0.39649650  0.40416541  0.18970503    -0.02700
C446        C  0.41446590  0.38292973  0.20856181     0.04200
N447        N  0.44170389  0.36665704  0.19714733     0.66700
H448        H  0.42111117  0.36311275  0.25450903     0.15600
H449        H  0.35393137  0.43263337  0.18767876     0.15300
N450        N  0.33250835  0.42723603  0.24482165     0.74400
O451        O  0.46856911  0.37917678  0.20135006    -0.39100
O452        O  0.44014960  0.33691376  0.19507666    -0.39000
O453        O  0.33311782  0.45662081  0.24997220    -0.39700
O454        O  0.30623124  0.41436348  0.23848645    -0.39800
C455        C  0.26554194  0.36406729  0.38399607    -0.12100
C456        C  0.27313577  0.38706717  0.36102004     0.04900
C457        C  0.24896856  0.39864228  0.34103218    -0.07400
C458        C  0.21771022  0.38908172  0.34640060    -0.08100
C459        C  0.20970385  0.36854714  0.37169671    -0.02700
C460        C  0.23437336  0.35503972  0.38979482     0.04200
N461        N  0.22884513  0.33250518  0.41451950     0.66700
H462        H  0.28390688  0.35371037  0.39864172     0.15600
H463        H  0.19955559  0.39943362  0.33171687     0.15300
N464        N  0.25477021  0.42144225  0.31655537     0.74400
O465        O  0.23371142  0.30367170  0.40869723    -0.39100
O466        O  0.23129309  0.34168758  0.44276646    -0.39000
O467        O  0.25287103  0.41243910  0.28821253    -0.39700
O468        O  0.24994452  0.45027532  0.32243211    -0.39800
C469        C  0.38114688  0.23381621  0.37348237    -0.12100
C470        C  0.35252810  0.22423914  0.38768216     0.04900
C471        C  0.32767108  0.24653226  0.38927551    -0.07400
C472        C  0.33315521  0.27796168  0.37944816    -0.08100
C473        C  0.36296707  0.28790521  0.36790881    -0.02700
C474        C  0.38670607  0.26485299  0.36395606     0.04200
N475        N  0.41742925  0.27212748  0.35179770     0.66700
H476        H  0.40037082  0.21730087  0.37041293     0.15600
H477        H  0.31417299  0.29483452  0.38194474     0.15300
N478        N  0.29687543  0.23842722  0.40070511     0.74400
O479        O  0.43992760  0.27560887  0.37125495    -0.39100
O480        O  0.42386919  0.26332792  0.32410127    -0.39600
O481        O  0.28895794  0.24792664  0.42777204    -0.39700
O482        O  0.27532709  0.23310630  0.38062210    -0.39800
C483        C  0.46460328  0.15826915  0.54432684     0.30200
C484        C  0.00463062  0.13590346  0.99531455     0.30200
C485        C  0.44861904  0.13753197  0.01708813    -0.06000
C486        C  0.48080188  0.18616626  0.52712931    -0.06800
C487        C  0.99446135  0.13766631  0.55344825    -0.06700
C488        C  0.47019611  0.12790047  0.99350841    -0.06000
C489        C  0.00029700  0.17432303  0.00115422    -0.06800
C490        C  0.01530620  0.12819544  0.52955281    -0.06700
C491        C  0.45309389  0.12417978  0.96641573    -0.32000
N492        N  0.42261716  0.13099605  0.97216327     0.14500
C493        C  0.41944123  0.13990694  0.00248091    -0.32100
H494        H  0.39837617  0.15074955  0.01196195     0.16400
C495        C  0.00960083  0.20541205  0.99059323    -0.31000
N496        N  0.49746689  0.23344771  0.50875697     0.13200
C497        C  0.47806313  0.21885275  0.53010896    -0.31000
C498        C  0.04362214  0.12088714  0.54386648    -0.31300
N499        N  0.04080756  0.12622782  0.57492854     0.13700
H500        H  0.06590884  0.11561675  0.53263425     0.16300
C501        C  0.01160940  0.13710358  0.58110818    -0.31300
H502        H  0.00486405  0.14692307  0.60361762     0.16300
H503        H  0.46318602  0.23062878  0.54621390     0.16300
H504        H  0.46262557  0.12108758  0.94291401     0.16400
H505        H  0.02660401  0.20989456  0.97129908     0.16300
C506        C  0.02727887  0.33916875  0.96663409     0.30200
C507        C  0.48557371  0.36056570  0.51215990     0.30200
C508        C  0.49718953  0.35901216  0.95447650    -0.06000
C509        C  0.01295815  0.31120746  0.98527445    -0.06800
C510        C  0.04198743  0.36477749  0.49134088    -0.06700
C511        C  0.47665595  0.36748004  0.47786544    -0.06000
C512        C  0.49361417  0.32252072  0.50963435    -0.06800
C513        C  0.51894971  0.37491229  0.51404826    -0.06700
C514        C  0.44625987  0.36999042  0.96302813    -0.32000
N515        N  0.45045659  0.36492540  0.93199102     0.14500
C516        C  0.48072267  0.35748261  0.92647864    -0.32100
H517        H  0.48884188  0.34894713  0.90390020     0.16400
C518        C  0.48473700  0.29167624  0.52090587    -0.31000
N519        N  0.50047714  0.26759618  0.50506949     0.13200
C520        C  0.01632879  0.27858413  0.98244729    -0.31000
C521        C  0.03666391  0.38132514  0.54099276    -0.31300
N522        N  0.06733723  0.37469099  0.53619636     0.13700
H523        H  0.02690550  0.38582058  0.56413428     0.16300
C524        C  0.07101546  0.36418927  0.50645128    -0.31300
H525        H  0.09217251  0.35264209  0.49810839     0.16300
H526        H  0.03104607  0.26696203  0.96587997     0.16300
H527        H  0.42343080  0.37343574  0.97403848     0.16400
H528        H  0.46693420  0.28735873  0.53943942     0.16300
C529        C  0.13432477  0.00529230  0.99363698     0.30200
C530        C  0.15523179  0.46166768  0.53856161     0.30200
C531        C  0.12532902  0.47151937  0.98755253    -0.06000
C532        C  0.17258724  0.99989150  0.99831895    -0.06800
C533        C  0.12643043  0.01198939  0.52980111    -0.06700
C534        C  0.13456003  0.44786186  0.00930552    -0.06000
C535        C  0.18309082  0.47911388  0.52237757    -0.06800
C536        C  0.13509098  0.98764497  0.55141210    -0.06700
C537        C  0.13459100  0.41967735  0.99348787    -0.32000
N538        N  0.12602815  0.42519044  0.96356482     0.14500
C539        C  0.12131634  0.45637485  0.95897570    -0.32100
H540        H  0.11759424  0.46709584  0.93593575     0.16400
C541        C  0.21581309  0.47599537  0.52474099    -0.31000
N542        N  0.23012771  0.49710789  0.50499294     0.13200
C543        C  0.20320207  0.01104682  0.98883875    -0.31000
C544        C  0.13745412  0.00111882  0.58069929    -0.31300
N545        N  0.13109285  0.03202449  0.57776681     0.13700
H546        H  0.14753705  0.99059762  0.60180630     0.16300
C547        C  0.12521747  0.03927247  0.54727040    -0.31300
H548        H  0.12335306  0.06323457  0.53815592     0.16300
H549        H  0.20707019  0.03012568  0.97193537     0.16300
H550        H  0.14376403  0.39710084  0.00135530     0.16400
H551        H  0.22811761  0.45937541  0.53989372     0.16300
C552        C  0.35742554  0.49289873  0.51470774     0.30200
C553        C  0.33567608  0.03879289  0.97208535     0.30200
C554        C  0.37076663  0.49097439  0.48098359    -0.06000
C555        C  0.31924489  0.49585127  0.50735285    -0.06800
C556        C  0.36577170  0.02692693  0.52359689    -0.06700
C557        C  0.35858715  0.51341306  0.95834360    -0.06000
C558        C  0.30830692  0.01931212  0.98624888    -0.06800
C559        C  0.35665668  0.05029621  0.50151336    -0.06700
C560        C  0.35697131  0.49846017  0.92954812    -0.32000
N561        N  0.36711579  0.46847445  0.93329729     0.14500
C562        C  0.37455696  0.46338778  0.96385108    -0.32100
H563        H  0.37914801  0.44015165  0.97369981     0.16400
C564        C  0.27567459  0.02108045  0.98269526    -0.31000
N565        N  0.26410073  0.00131186  0.50335272     0.13200
C566        C  0.28865087  0.48469980  0.51706584    -0.31000
C567        C  0.35591744  0.07848216  0.51732633    -0.31300
N568        N  0.36371673  0.07305630  0.54752963     0.13700
H569        H  0.34713233  0.10110745  0.50911917     0.16300
C570        C  0.36870727  0.04190593  0.55228485    -0.31300
H571        H  0.37214497  0.03096502  0.57529185     0.16300
H572        H  0.28484829  0.46664661  0.53506505     0.16300
H573        H  0.34515268  0.50724468  0.90848898     0.16400
H574        H  0.26321891  0.03770792  0.96761155     0.16300
C575        C  0.48809073  0.48782569  0.64484476     0.30200
C576        C  0.03379453  0.03273037  0.66135772     0.30200
C577        C  0.48472035  0.02130022  0.63207725    -0.06000
C578        C  0.49135501  0.49538925  0.68286933    -0.06800
C579        C  0.52276682  0.48123495  0.63712499    -0.06700
C580        C  0.50695931  0.04425539  0.64170841    -0.06000
C581        C  0.01549004  0.01740142  0.68899776    -0.06800
C582        C  0.04628836  0.50432372  0.64583088    -0.06700
C583        C  0.49147187  0.07268339  0.64139649    -0.32000
N584        N  0.46187180  0.06792699  0.63103964     0.14500
C585        C  0.45722413  0.03710407  0.62532756    -0.32100
H586        H  0.43413337  0.02684808  0.62120560     0.16400
C587        C  0.01778594  0.02047711  0.72165070    -0.31000
N588        N  0.49728974  0.00111398  0.73796644     0.13200
C589        C  0.48053654  0.48596574  0.71366641    -0.31000
C590        C  0.07489100  0.48907256  0.64749503    -0.31300
N591        N  0.06994767  0.45841299  0.64046956     0.13700
H592        H  0.09713565  0.49857205  0.65599486     0.16300
C593        C  0.03894943  0.45321325  0.63526169    -0.31300
H594        H  0.02843825  0.43005663  0.63204590     0.16300
H595        H  0.46282520  0.46770002  0.71787790     0.16300
H596        H  0.49916720  0.09454260  0.65217325     0.16400
H597        H  0.03377009  0.03613447  0.73388360     0.16300
C598        C  0.00191175  0.00933183  0.86314789     0.30200
C599        C  0.45495277  0.46805835  0.84659430     0.30200
C600        C  0.46679687  0.01933829  0.87317136    -0.06000
C601        C  0.99839130  0.00269846  0.82498457    -0.06800
C602        C  0.00499895  0.47597903  0.87781610    -0.06700
C603        C  0.44334678  0.99778365  0.86382534    -0.06000
C604        C  0.47367614  0.48279108  0.81893117    -0.06800
C605        C  0.98168102  0.45397663  0.86829343    -0.06700
C606        C  0.41498423  0.01349086  0.86471005    -0.32000
N607        N  0.42057007  0.04325369  0.87390224     0.14500
C608        C  0.45182813  0.04768257  0.87844761    -0.32100
H609        H  0.46256253  0.07038161  0.88341287     0.16400
C610        C  0.47114309  0.47975940  0.78629782    -0.31000
N611        N  0.49242203  0.49921798  0.77185248     0.13200
C612        C  0.00956428  0.01223430  0.79435245    -0.31000
C613        C  0.99627872  0.42488171  0.86791701    -0.31300
N614        N  0.02641763  0.42857421  0.87782731     0.13700
H615        H  0.98717219  0.40352909  0.85719775     0.16300
C616        C  0.03202684  0.45922050  0.88347732    -0.31300
H617        H  0.05559759  0.46889441  0.88634331     0.16300
H618        H  0.02792025  0.02997308  0.79041567     0.16300
H619        H  0.39206930  0.00559777  0.85640029     0.16400
H620        H  0.45458785  0.46471418  0.77418688     0.16300
O621        O  0.31851415  0.39701942  0.88927975    -0.85200
O622        O  0.34736436  0.34036565  0.87565267    -0.82200
C623        C  0.36761142  0.32117913  0.86524508     0.98300
O624        O  0.39459551  0.33112842  0.85579219    -0.82200
O625        O  0.38772365  0.36921909  0.80349569    -0.84900
C626        C  0.37688235  0.39161650  0.78700606     1.02800
O627        O  0.36871947  0.41735041  0.79933358    -0.77600
O628        O  0.31763142  0.40616206  0.83880661    -0.77800
C629        C  0.30378110  0.39619077  0.86339278     1.02800
O630        O  0.37535436  0.41704485  0.91810083    -0.85100
O631        O  0.39965587  0.35821423  0.91291614    -0.82200
C632        C  0.42734698  0.36779591  0.90809705     0.98300
O633        O  0.43496222  0.38006630  0.88218942    -0.82200
O634        O  0.43244406  0.41634683  0.82968431    -0.84800
C635        C  0.42767359  0.44404677  0.84040712     1.02800
O636        O  0.40001188  0.45167858  0.84849462    -0.77700
O637        O  0.34894456  0.44798878  0.88544120    -0.77800
C638        C  0.36408354  0.44371362  0.91109275     1.02800
Cr639      Cr  0.36113931  0.37918393  0.89644242     1.93700
Cr640      Cr  0.40997831  0.37539957  0.84371889     1.93200
Cr641      Cr  0.35970944  0.42832729  0.84385865     1.39100
O642        O  0.37702257  0.39409337  0.86084605    -1.22900
O643        O  0.36369808  0.14593332  0.84362379    -0.85200
O644        O  0.37623597  0.17606415  0.89956086    -0.82200
C645        C  0.34994952  0.19009459  0.89929455     0.98300
O646        O  0.32582353  0.17566103  0.90974080    -0.82200
O647        O  0.28822666  0.12281450  0.92113301    -0.84900
C648        C  0.27586158  0.11508348  0.89516676     1.02800
O649        O  0.29251917  0.10582378  0.87246907    -0.77600
O650        O  0.34606016  0.09749038  0.83618855    -0.77800
C651        C  0.35540553  0.12420670  0.82521875     1.02800
O652        O  0.40159067  0.09381979  0.86497620    -0.85100
O653        O  0.40622386  0.12065469  0.92171551    -0.82200
C654        C  0.39958650  0.13262994  0.94788277     0.98300
O655        O  0.37355039  0.14678591  0.95199347    -0.82200
O656        O  0.33836216  0.09375744  0.95573284    -0.84800
C657        C  0.32911795  0.06632713  0.94845890     1.02800
O658        O  0.31704070  0.06203571  0.92117230    -0.77700
O659        O  0.37063976  0.05890199  0.88748376    -0.77800
C660        C  0.39680038  0.06643215  0.87583462     1.02800
Cr661      Cr  0.38444879  0.13323542  0.88339585     1.93700
Cr662      Cr  0.33226429  0.13391733  0.93232053     1.93200
Cr663      Cr  0.33236542  0.08350514  0.88031832     1.39100
O664        O  0.34921742  0.11695063  0.89842376    -1.22900
O665        O  0.05496407  0.14264450  0.91963176    -0.85200
O666        O  0.06567031  0.10979890  0.86707195    -0.82200
C667        C  0.07787497  0.08920235  0.84985393     0.98300
O668        O  0.07883986  0.06078601  0.85898594    -0.82200
O669        O  0.13132154  0.06575896  0.89327211    -0.84900
C670        C  0.14905738  0.07781545  0.91358576     1.02800
O671        O  0.13950913  0.08271831  0.94119797    -0.77600
O672        O  0.10423098  0.13496587  0.93187508    -0.77800
C673        C  0.08276756  0.15250661  0.92087660     1.02800
O674        O  0.01653889  0.10029418  0.94755158    -0.85100
O675        O  0.02051978  0.06190289  0.88420147    -0.82200
C676        C  0.02566625  0.03203646  0.88300490     0.98300
O677        O  0.04842812  0.02130294  0.90069178    -0.82200
O678        O  0.11092571  0.02319803  0.94126116    -0.84800
C679        C  0.11436409  0.02942309  0.97087015     1.02800
O680        O  0.09882036  0.05355159  0.98149523    -0.77700
O681        O  0.05727935  0.11516602  0.97666632    -0.77800
C682        C  0.02726965  0.11667236  0.97117482     1.02800
Cr683      Cr  0.04190802  0.10032846  0.90633202     1.93700
Cr684      Cr  0.09051337  0.04515223  0.90167170     1.93200
Cr685      Cr  0.09683013  0.09487697  0.95546810     1.39100
O686        O  0.07509793  0.07862132  0.92269990    -1.22900
O687        O  0.15471175  0.37121396  0.86090572    -0.85200
O688        O  0.09911107  0.38711281  0.83125767    -0.82200
C689        C  0.09959744  0.36166618  0.81639077     0.98300
O690        O  0.08955677  0.33663130  0.82992122    -0.82200
O691        O  0.07863198  0.29552377  0.88078129    -0.84900
C692        C  0.10373422  0.28161497  0.88930229     1.02800
O693        O  0.12666398  0.29698425  0.90024164    -0.77600
O694        O  0.16379798  0.34971999  0.90775643    -0.77800
C695        C  0.17375864  0.35971815  0.88099069     1.02800
O696        O  0.13601632  0.40668638  0.91355581    -0.85100
O697        O  0.07744806  0.41286292  0.88817875    -0.82200
C698        C  0.05107542  0.40622049  0.87593261     0.98300
O699        O  0.04714429  0.38096467  0.86063790    -0.82200
O700        O  0.04357159  0.34321470  0.91186969    -0.84800
C701        C  0.05107443  0.33366612  0.93928031     1.02800
O702        O  0.07862990  0.32219597  0.94383711    -0.77700
O703        O  0.11380886  0.37492253  0.94769026    -0.77800
C704        C  0.12507955  0.40141221  0.94054018     1.02800
Cr705      Cr  0.11581900  0.39184314  0.87446282     1.93700
Cr706      Cr  0.06705336  0.33967376  0.87166768     1.93200
Cr707      Cr  0.11960802  0.33714645  0.92235067     1.39100
O708        O  0.10108495  0.35567602  0.88941993    -1.22900
O709        O  0.10903408  0.32540925  0.60844159    -0.85200
O710        O  0.12154269  0.35248090  0.66533365    -0.82200
C711        C  0.13280909  0.37193479  0.68465110     0.98300
O712        O  0.14392121  0.39870460  0.67502724    -0.82200
O713        O  0.19721764  0.39449424  0.63867448    -0.84900
C714        C  0.21323455  0.38523901  0.61577465     1.02800
O715        O  0.20036957  0.37566139  0.59063568    -0.77600
O716        O  0.15984105  0.32374086  0.60138814    -0.77800
C717        C  0.13459734  0.31017939  0.61050598     1.02800
O718        O  0.08269338  0.38381372  0.58756136    -0.85100
O719        O  0.08761468  0.40714345  0.64707948    -0.82200
C720        C  0.09350364  0.43500903  0.63831746     0.98300
O721        O  0.11957364  0.44205706  0.62646787    -0.82200
O722        O  0.17173706  0.43867657  0.59080687    -0.84800
C723        C  0.16109126  0.43414625  0.56285289     1.02800
O724        O  0.15240441  0.40661043  0.55525329    -0.77700
O725        O  0.11455819  0.35579737  0.55807938    -0.77800
C726        C  0.08945159  0.37181920  0.56134263     1.02800
Cr727      Cr  0.10276101  0.36821456  0.62607641     1.93700
Cr728      Cr  0.15702513  0.41596786  0.63163428     1.93200
Cr729      Cr  0.15608747  0.36613557  0.57876373     1.39100
O730        O  0.13926123  0.38339882  0.61251316    -1.22900
O731        O  0.40970622  0.35391929  0.56348675    -0.85200
O732        O  0.35906419  0.38862005  0.57371793    -0.82200
C733        C  0.34169204  0.40880800  0.58612475     0.98300
O734        O  0.35152570  0.43673117  0.58938316    -0.82200
O735        O  0.38679688  0.42554068  0.64062236    -0.84900
C736        C  0.40703395  0.41283702  0.65841201     1.02800
O737        O  0.43512256  0.41010283  0.64935294    -0.77600
O738        O  0.42539638  0.36102555  0.61196205    -0.77800
C739        C  0.41358197  0.34364643  0.59111952     1.02800
O740        O  0.43959434  0.39727651  0.52585691    -0.85100
O741        O  0.37822331  0.43872448  0.53095230    -0.82200
C742        C  0.37686290  0.46843618  0.53764498     0.98300
O743        O  0.39349599  0.47775182  0.56171764    -0.82200
O744        O  0.43457766  0.47056242  0.62366313    -0.84800
C745        C  0.46447619  0.46455734  0.62532433     1.02800
O746        O  0.47470762  0.44140369  0.60830311    -0.77700
O747        O  0.46950188  0.38110764  0.56560945    -0.77800
C748        C  0.46297118  0.38002764  0.53588391     1.02800
Cr749      Cr  0.39858688  0.39784027  0.55102974     1.93700
Cr750      Cr  0.39471632  0.45033634  0.60199929     1.93200
Cr751      Cr  0.44873476  0.40051957  0.60561912     1.39100
O752        O  0.41560456  0.41781086  0.58471012    -1.22900
O753        O  0.11814260  0.16576589  0.62067515    -0.85200
O754        O  0.16912376  0.12997934  0.63601069    -0.82200
C755        C  0.18627187  0.10817943  0.64700837     0.98300
O756        O  0.17429233  0.08175946  0.65564741    -0.82200
O757        O  0.13620755  0.09217055  0.70759644    -0.84900
C758        C  0.11350032  0.10394412  0.72248399     1.02800
O759        O  0.08868865  0.11317151  0.70838932    -0.77600
O760        O  0.10288250  0.16600599  0.67025045    -0.77800
C761        C  0.11381948  0.18040199  0.64617821     1.02800
O762        O  0.09144084  0.11199215  0.58992898    -0.85100
O763        O  0.14633717  0.08018902  0.59813297    -0.82200
C764        C  0.13319688  0.05386502  0.60263850     0.98300
O765        O  0.12144369  0.04679429  0.62882867    -0.82200
O766        O  0.08554521  0.05293034  0.68090149    -0.84800
C767        C  0.05904644  0.05878236  0.66758069     1.02800
O768        O  0.05400521  0.08637668  0.65709080    -0.77700
O769        O  0.06301480  0.13976665  0.62274297    -0.77800
C770        C  0.06607204  0.12570433  0.59680029     1.02800
Cr771      Cr  0.13008095  0.12093865  0.61374357     1.93700
Cr772      Cr  0.12851449  0.07110260  0.66705581     1.93200
Cr773      Cr  0.07956584  0.12501496  0.66406243     1.39100
O774        O  0.11313716  0.10596446  0.64884440    -1.22900
O775        O  0.39119292  0.10993978  0.68028775    -0.85200
O776        O  0.33601327  0.12850586  0.65075049    -0.82200
C777        C  0.31723817  0.13904375  0.63003335     0.98300
O778        O  0.32730652  0.14876800  0.60320287    -0.82200
O779        O  0.36580661  0.20005887  0.61238219    -0.84900
C780        C  0.38880726  0.21562162  0.62309104     1.02800
O781        O  0.41425024  0.20234922  0.63135766    -0.77600
O782        O  0.40319746  0.16023385  0.68143190    -0.77800
C783        C  0.39513826  0.13494788  0.69566919     1.02800
O784        O  0.41072448  0.08369684  0.62247149    -0.85100
O785        O  0.35316638  0.09238369  0.59725818    -0.82200
C786        C  0.36479245  0.09704889  0.57037964     0.98300
O787        O  0.37702112  0.12315477  0.56326079    -0.82200
O788        O  0.41319963  0.17555158  0.56748203    -0.84800
C789        C  0.44068468  0.16371629  0.57178992     1.02800
O790        O  0.44798424  0.15368076  0.59904853    -0.77700
O791        O  0.44226020  0.11513239  0.64925296    -0.77800
C792        C  0.43741006  0.09008032  0.63383738     1.02800
Cr793      Cr  0.37383531  0.10633275  0.63675585     1.93700
Cr794      Cr  0.37188387  0.16085876  0.58895610     1.93200
Cr795      Cr  0.42446538  0.15726723  0.63931872     1.39100
O796        O  0.38991650  0.14200161  0.62175002    -1.22900
C797        C  0.23020311  0.14609110  0.64978458    -0.12100
C798        C  0.22060788  0.11429185  0.64720151     0.04900
C799        C  0.24332113  0.09119986  0.63937955    -0.07400
C800        C  0.27459260  0.10047629  0.63387311    -0.08100
C801        C  0.28362249  0.13240025  0.63499267    -0.02700
C802        C  0.26121152  0.15540489  0.64319958     0.04200
N803        N  0.26883519  0.18830584  0.64434148     0.66700
H804        H  0.21315865  0.16418005  0.65553718     0.15600
H805        H  0.29183031  0.08264232  0.62787082     0.15300
N806        N  0.23511819  0.05878267  0.63441283     0.74400
O807        O  0.26186363  0.20537115  0.62066393    -0.39100
O808        O  0.27096856  0.20119408  0.67109369    -0.39000
O809        O  0.23219403  0.04929126  0.60630616    -0.39700
O810        O  0.24205927  0.03884259  0.65573444    -0.39800
C811        C  0.37996383  0.26057843  0.58901752    -0.12100
C812        C  0.38861978  0.24974025  0.61915377     0.04900
C813        C  0.40372985  0.27032060  0.64042605    -0.07400
C814        C  0.41055991  0.30106677  0.63081172    -0.08100
C815        C  0.40426233  0.31127381  0.59971876    -0.02700
C816        C  0.38877622  0.29052212  0.57857829     0.04200
N817        N  0.38406608  0.29777504  0.54581017     0.66700
H818        H  0.36938259  0.24457797  0.57212278     0.15600
H819        H  0.42201111  0.31647235  0.64753531     0.15300
N820        N  0.41316753  0.26057764  0.67150224     0.74400
O821        O  0.40359476  0.28678481  0.52624211    -0.39100
O822        O  0.35630009  0.30353157  0.53630212    -0.39000
O823        O  0.44198848  0.25408515  0.67627147    -0.39700
O824        O  0.39671286  0.26960140  0.69459565    -0.39800
C825        C  0.15100896  0.22334940  0.63298200    -0.12100
C826        C  0.12146410  0.21450438  0.64559015     0.04900
C827        C  0.09819763  0.23789117  0.64942654    -0.07400
C828        C  0.10414654  0.26878496  0.63897188    -0.08100
C829        C  0.13280119  0.27738923  0.62399074    -0.02700
C830        C  0.15698229  0.25436545  0.62230539     0.04200
N831        N  0.18727365  0.26108839  0.60891106     0.66700
H832        H  0.16906288  0.20557281  0.62977766     0.15600
H833        H  0.08530449  0.28580706  0.64152500     0.15300
N834        N  0.06722554  0.23052285  0.66088593     0.74400
O835        O  0.21016107  0.26612503  0.62753453    -0.39100
O836        O  0.19316428  0.25077605  0.58162411    -0.39000
O837        O  0.06003912  0.23914557  0.68844824    -0.39700
O838        O  0.04523818  0.22641601  0.64098200    -0.39800
C839        C  0.26491266  0.36465074  0.60244948    -0.12100
C840        C  0.24736500  0.38871760  0.61616180     0.04900
C841        C  0.26168762  0.41819042  0.62250497    -0.07400
C842        C  0.29274437  0.42353636  0.61322970    -0.08100
C843        C  0.30977773  0.40031896  0.59710665    -0.02700
C844        C  0.29582276  0.37012897  0.59263207     0.04200
N845        N  0.31145198  0.34500675  0.57680461     0.66700
H846        H  0.25387033  0.34210568  0.59740212     0.15600
H847        H  0.30289348  0.44661861  0.61748921     0.15300
N848        N  0.24445163  0.44427024  0.63504084     0.74400
O849        O  0.32292922  0.32291508  0.59352614    -0.39100
O850        O  0.30293547  0.33899860  0.54882025    -0.39000
O851        O  0.25026387  0.45252803  0.66310108    -0.39700
O852        O  0.23357861  0.46469072  0.61592594    -0.39800
C853        C  0.10492213  0.33710219  0.76366900    -0.12100
C854        C  0.11161715  0.36244289  0.78356170     0.04900
C855        C  0.12948714  0.38844066  0.77135478    -0.07400
C856        C  0.13820089  0.38925568  0.73967648    -0.08100
C857        C  0.12920211  0.36528579  0.71900870    -0.02700
C858        C  0.11328635  0.33819475  0.73166681     0.04200
N859        N  0.10446593  0.31166748  0.71285203     0.66700
H860        H  0.09211279  0.31675605  0.77260403     0.15600
H861        H  0.15074134  0.40989474  0.73102442     0.15300
N862        N  0.13867098  0.41502624  0.79001713     0.74400
O863        O  0.12102634  0.28690566  0.71521073    -0.39100
O864        O  0.07573958  0.30890650  0.70485082    -0.39000
O865        O  0.16769004  0.41834141  0.79653884    -0.39700
O866        O  0.12168016  0.43954731  0.78856402    -0.39800
C867        C  0.09480465  0.12827766  0.77067659    -0.12100
C868        C  0.11347889  0.10488483  0.75695126     0.04900
C869        C  0.12463585  0.07951608  0.77571853    -0.07400
C870        C  0.11388638  0.07626790  0.80661659    -0.08100
C871        C  0.09160045  0.09736891  0.81898723    -0.02700
C872        C  0.08324541  0.12453000  0.80118529     0.04200
N873        N  0.06116175  0.14741631  0.81196670     0.66700
H874        H  0.08655810  0.14814134  0.75661357     0.15600
H875        H  0.12167209  0.05598338  0.82027184     0.15300
N876        N  0.14410889  0.05501180  0.76333442     0.74400
O877        O  0.03250740  0.14429179  0.80379271    -0.39100
O878        O  0.07154644  0.17489136  0.81742327    -0.39000
O879        O  0.17316973  0.05499594  0.77052168    -0.39700
O880        O  0.13116466  0.02917606  0.75573865    -0.39800
C881        C  0.07451731  0.23261294  0.88186145    -0.12100
C882        C  0.10330353  0.24682779  0.89030748     0.04900
C883        C  0.12690380  0.22822904  0.90531156    -0.07400
C884        C  0.12003719  0.19702591  0.91395233    -0.08100
C885        C  0.08967458  0.18445491  0.90912471    -0.02700
C886        C  0.06676711  0.20258814  0.89242675     0.04200
N887        N  0.03457289  0.19264189  0.88805938     0.66700
H888        H  0.05622349  0.24585911  0.86969044     0.15600
H889        H  0.13814330  0.18319772  0.92572129     0.15300
N890        N  0.15762781  0.24031257  0.91277828     0.74400
O891        O  0.02612177  0.18282213  0.86123747    -0.39100
O892        O  0.01369013  0.20441279  0.90569086    -0.39000
O893        O  0.16395566  0.24646300  0.94128928    -0.39700
O894        O  0.18015640  0.23391247  0.89437669    -0.39800
C895        C  0.38128925  0.10319119  0.77837579    -0.12100
C896        C  0.36340498  0.12759286  0.79144179     0.04900
C897        C  0.35878124  0.15576651  0.77365427    -0.07400
C898        C  0.37112601  0.15846374  0.74302793    -0.08100
C899        C  0.38837874  0.13371668  0.72979245    -0.02700
C900        C  0.39401531  0.10600851  0.74810362     0.04200
N901        N  0.41346111  0.08073799  0.73710660     0.66700
H902        H  0.38652228  0.08218307  0.79220730     0.15600
H903        H  0.36597081  0.17942393  0.72909549     0.15300
N904        N  0.34030620  0.18134287  0.78528631     0.74400
O905        O  0.44192769  0.07964289  0.74638466    -0.39100
O906        O  0.40015097  0.05530802  0.72883252    -0.39000
O907        O  0.35449833  0.20629440  0.79354883    -0.39700
O908        O  0.31172843  0.18327336  0.77654024    -0.39800
C909        C  0.19101042  0.11658516  0.91923933    -0.12100
C910        C  0.18060913  0.08861250  0.90511236     0.04900
C911        C  0.20012418  0.07295196  0.88332231    -0.07400
C912        C  0.23029935  0.08475548  0.87739295    -0.08100
C913        C  0.24166272  0.11123078  0.89367889    -0.02700
C914        C  0.22132445  0.12794138  0.91393354     0.04200
N915        N  0.23088942  0.15604731  0.92995814     0.66700
H916        H  0.17574654  0.12949893  0.93500284     0.15600
H917        H  0.24578180  0.07132718  0.86227327     0.15300
N918        N  0.19124360  0.04369014  0.86910859     0.74400
O919        O  0.22189223  0.18231455  0.91872302    -0.39100
O920        O  0.23708211  0.15417307  0.95916008    -0.39000
O921        O  0.18263818  0.04411788  0.84049599    -0.39700
O922        O  0.20262406  0.01839821  0.88047060    -0.39800
C923        C  0.40722311  0.37686564  0.74090776    -0.12100
C924        C  0.37921981  0.38978500  0.75267894     0.04900
C925        C  0.35854945  0.40611047  0.73205534    -0.07400
C926        C  0.36758511  0.41156078  0.70091965    -0.08100
C927        C  0.39747775  0.40212884  0.69013699    -0.02700
C928        C  0.41689942  0.38329622  0.71013033     0.04200
N929        N  0.44721560  0.37175000  0.70079109     0.66700
H930        H  0.42331709  0.36426248  0.75645575     0.15600
H931        H  0.35163809  0.42475993  0.68574819     0.15300
N932        N  0.32865339  0.41807815  0.74207900     0.74400
O933        O  0.47146173  0.38744639  0.70864822    -0.39100
O934        O  0.45017610  0.34239338  0.69638407    -0.39000
O935        O  0.32605197  0.44751109  0.74622159    -0.39700
O936        O  0.30409018  0.40243107  0.73517328    -0.39800
C937        C  0.26271005  0.36584439  0.89141849    -0.12100
C938        C  0.27113239  0.38310983  0.86405237     0.04900
C939        C  0.24823941  0.38685190  0.83992651    -0.07400
C940        C  0.21727065  0.37603182  0.84503491    -0.08100
C941        C  0.20811547  0.36219493  0.87405141    -0.02700
C942        C  0.23183307  0.35550963  0.89666989     0.04200
N943        N  0.22562191  0.33839645  0.92526648     0.66700
H944        H  0.28008943  0.36068130  0.90956994     0.15600
H945        H  0.20010056  0.37972822  0.82659914     0.15300
N946        N  0.25510649  0.40211731  0.81047617     0.74400
O947        O  0.23336932  0.30956554  0.92654119    -0.39100
O948        O  0.22408942  0.35364388  0.95076128    -0.39000
O949        O  0.25753746  0.38505699  0.78624987    -0.39700
O950        O  0.24707240  0.43068840  0.80685004    -0.39800
C951        C  0.37636238  0.23173582  0.86840903    -0.12100
C952        C  0.34988346  0.22298911  0.88666903     0.04900
C953        C  0.32677309  0.24616431  0.89287599    -0.07400
C954        C  0.33216386  0.27757623  0.88330258    -0.08100
C955        C  0.36045054  0.28679085  0.86800458    -0.02700
C956        C  0.38213736  0.26297899  0.85952406     0.04200
N957        N  0.41093253  0.26953507  0.84304186     0.66700
H958        H  0.39383362  0.21435663  0.86185026     0.15600
H959        H  0.31461151  0.29502480  0.88940470     0.15300
N960        N  0.29827221  0.23915091  0.90964391     0.74400
O961        O  0.43636287  0.27053620  0.85885543    -0.39100
O962        O  0.41239626  0.26223716  0.81418881    -0.39600
O963        O  0.29615545  0.24801173  0.93800054    -0.39700
O964        O  0.27308538  0.23575649  0.89380278    -0.39800
C965        C  0.46310281  0.65670968  0.04273575     0.30200
C966        C  0.00628809  0.63971926  0.49605874     0.30200
C967        C  0.45021681  0.63875539  0.51567694    -0.06000
C968        C  0.47935604  0.68454015  0.02567785    -0.06800
C969        C  0.99270920  0.63327102  0.05405855    -0.06700
C970        C  0.47196009  0.62960295  0.49209415    -0.06000
C971        C  0.00147575  0.67802118  0.50146345    -0.06800
C972        C  0.01321772  0.62362218  0.02997017    -0.06700
C973        C  0.45499645  0.62573111  0.46499063    -0.32000
N974        N  0.42439562  0.63182786  0.47091334     0.14500
C975        C  0.42101253  0.64061815  0.50122943    -0.32100
H976        H  0.39969761  0.65079782  0.51085950     0.16400
C977        C  0.01117430  0.70883609  0.49078819    -0.31000
N978        N  0.49503706  0.73195621  0.00693289     0.13200
C979        C  0.47605081  0.71717559  0.02845712    -0.31000
C980        C  0.04165009  0.61611682  0.04401132    -0.31300
N981        N  0.03931720  0.62169618  0.07506803     0.13700
H982        H  0.06379222  0.61082622  0.03254533     0.16300
C983        C  0.01021092  0.63267778  0.08153380    -0.31300
H984        H  0.00382942  0.64280473  0.10402114     0.16300
H985        H  0.46090730  0.72880824  0.04445681     0.16300
H986        H  0.46453130  0.62280283  0.44146658     0.16400
H987        H  0.02855458  0.71305054  0.47178910     0.16300
C988        C  0.02963343  0.84217306  0.46595789     0.30200
C989        C  0.48316980  0.85955774  0.01113302     0.30200
C990        C  0.49926655  0.85957407  0.45558378    -0.06000
C991        C  0.01615903  0.81435172  0.48542378    -0.06800
C992        C  0.03992703  0.85967928  0.99011735    -0.06700
C993        C  0.47449788  0.86743999  0.97702809    -0.06000
C994        C  0.49024258  0.82122669  0.00791800    -0.06800
C995        C  0.51695500  0.87279544  0.01355924    -0.06700
C996        C  0.44817621  0.87020881  0.46367222    -0.32000
N997        N  0.45275402  0.86557139  0.43258492     0.14500
C998        C  0.48314283  0.85829202  0.42735233    -0.32100
H999        H  0.49163325  0.85021111  0.40474581     0.16400
C1000       C  0.48181215  0.79018347  0.01927706    -0.31000
N1001       N  0.49735666  0.76616737  0.00302957     0.13200
C1002       C  0.01933554  0.78170275  0.48283300    -0.31000
C1003       C  0.03480352  0.87566748  0.03996631    -0.31300
N1004       N  0.06543864  0.86863477  0.03527229     0.13700
H1005       H  0.02506533  0.88040073  0.06305798     0.16300
C1006       C  0.06894905  0.85826146  0.00543310    -0.31300
H1007       H  0.09005462  0.84672532  0.99692720     0.16300
H1008       H  0.03403168  0.76987250  0.46642150     0.16300
H1009       H  0.42523055  0.87361294  0.47445549     0.16400
H1010       H  0.46487646  0.78570686  0.03848884     0.16300
C1011       C  0.13691715  0.50920336  0.49515972     0.30200
C1012       C  0.15302352  0.95811563  0.03670178     0.30200
C1013       C  0.12679264  0.97436762  0.48793481    -0.06000
C1014       C  0.17514487  0.50336031  0.49993889    -0.06800
C1015       C  0.12572244  0.50919795  0.02933304    -0.06700
C1016       C  0.13576743  0.95067481  0.50980085    -0.06000
C1017       C  0.18068050  0.97564015  0.02056781    -0.06800
C1018       C  0.13478048  0.48489749  0.05086806    -0.06700
C1019       C  0.13680363  0.92265525  0.49369160    -0.32000
N1020       N  0.12902722  0.92827519  0.46358113     0.14500
C1021       C  0.12385505  0.95937934  0.45913821    -0.32100
H1022       H  0.12052948  0.97018719  0.43608311     0.16400
C1023       C  0.21335922  0.97305426  0.02348842    -0.31000
N1024       N  0.22757858  0.99463127  0.00423811     0.13200
C1025       C  0.20580580  0.51379758  0.48981121    -0.31000
C1026       C  0.13781737  0.49856365  0.08005080    -0.31300
N1027       N  0.13132302  0.52945999  0.07714028     0.13700
H1028       H  0.14843284  0.48815740  0.10097747     0.16300
C1029       C  0.12479602  0.53653772  0.04673240    -0.31300
H1030       H  0.12267078  0.56044971  0.03755648     0.16300
H1031       H  0.20974093  0.53243863  0.47246687     0.16300
H1032       H  0.14605408  0.90013180  0.50161887     0.16400
H1033       H  0.22569301  0.95667900  0.03886578     0.16300
C1034       C  0.35486568  0.99189712  0.01514797     0.30200
C1035       C  0.33834308  0.53947548  0.47072211     0.30200
C1036       C  0.36759667  0.98989404  0.98112565    -0.06000
C1037       C  0.31661673  0.99500604  0.00833541    -0.06800
C1038       C  0.36423843  0.52686409  0.02238244    -0.06700
C1039       C  0.35961890  0.01346056  0.45952785    -0.06000
C1040       C  0.31100200  0.51980049  0.48479440    -0.06800
C1041       C  0.35503453  0.55011643  0.00026495    -0.06700
C1042       C  0.35794812  0.99870729  0.43062374    -0.32000
N1043       N  0.36781217  0.96861214  0.43424639     0.14500
C1044       C  0.37495941  0.96324117  0.46483978    -0.32100
H1045       H  0.37936166  0.93990838  0.47460050     0.16400
C1046       C  0.27832152  0.52201067  0.48175741    -0.31000
N1047       N  0.26294369  0.50000523  0.00193353     0.13200
C1048       C  0.28606790  0.98306509  0.01722791    -0.31000
C1049       C  0.35462677  0.57836879  0.01579363    -0.31300
N1050       N  0.36276442  0.57303240  0.04590373     0.13700
H1051       H  0.34591536  0.60101332  0.00747444     0.16300
C1052       C  0.36757669  0.54191982  0.05092770    -0.31300
H1053       H  0.37125312  0.53116728  0.07396111     0.16300
H1054       H  0.28229498  0.96425750  0.03440050     0.16300
H1055       H  0.34656954  0.00780851  0.40948833     0.16400
H1056       H  0.26590035  0.53871127  0.46677399     0.16300
C1057       C  0.48756214  0.98724411  0.14416572     0.30200
C1058       C  0.03421901  0.53151812  0.16150774     0.30200
C1059       C  0.48219240  0.52166953  0.13183687    -0.06000
C1060       C  0.49197856  0.99363644  0.18251801    -0.06800
C1061       C  0.52200940  0.98107758  0.13497851    -0.06700
C1062       C  0.50461044  0.54453144  0.14127506    -0.06000
C1063       C  0.01668081  0.51628985  0.18953053    -0.06800
C1064       C  0.04423092  0.00240410  0.14164887    -0.06700
C1065       C  0.48858628  0.57281272  0.14303624    -0.32000
N1066       N  0.45851626  0.56814399  0.13382137     0.14500
C1067       C  0.45414714  0.53744674  0.12714533    -0.32100
H1068       H  0.43107300  0.52705373  0.12324556     0.16400
C1069       C  0.01919836  0.52037619  0.22202318    -0.31000
N1070       N  0.49708737  0.50166600  0.23700764     0.13200
C1071       C  0.48142018  0.98477966  0.21371966    -0.31000
C1072       C  0.07302319  0.98752360  0.14210150    -0.31300
N1073       N  0.06828144  0.95699254  0.13471259     0.13700
H1074       H  0.09516877  0.99684594  0.15096234     0.16300
C1075       C  0.03723666  0.95143994  0.13043118    -0.31300
H1076       H  0.02696536  0.92808051  0.12789358     0.16300
H1077       H  0.46311182  0.96723110  0.21837214     0.16300
H1078       H  0.49675893  0.59446988  0.15386520     0.16400
H1079       H  0.03526155  0.53636373  0.23370011     0.16300
C1080       C  0.00353072  0.51278625  0.36426746     0.30200
C1081       C  0.45727510  0.97004279  0.34723070     0.30200
C1082       C  0.46950517  0.52121430  0.37330187    -0.06000
C1083       C  0.99967532  0.50602966  0.32603059    -0.06800
C1084       C  0.00708538  0.97859833  0.37737186    -0.06700
C1085       C  0.44614729  0.49915085  0.36472727    -0.06000
C1086       C  0.47579128  0.98425774  0.31932407    -0.06800
C1087       C  0.98385329  0.95624894  0.36843388    -0.06700
C1088       C  0.41791760  0.51521624  0.36353313    -0.32000
N1089       N  0.42328692  0.54545480  0.37105285     0.14500
C1090       C  0.45442378  0.54995859  0.37620626    -0.32100
H1091       H  0.46516883  0.57290625  0.37988563     0.16400
C1092       C  0.47300898  0.98019011  0.28685319    -0.31000
N1093       N  0.49416904  0.99913006  0.27172800     0.13200
C1094       C  0.01076586  0.51480258  0.29506504    -0.31000
C1095       C  0.99869099  0.92727683  0.36831513    -0.31300
N1096       N  0.02891801  0.93138422  0.37774221     0.13700
H1097       H  0.98962194  0.90567629  0.35806413     0.16300
C1098       C  0.03435921  0.96214650  0.38279460    -0.31300
H1099       H  0.05790262  0.97204968  0.38499854     0.16300
H1100       H  0.02931801  0.53220505  0.29064401     0.16300
H1101       H  0.39527641  0.50698481  0.35477987     0.16400
H1102       H  0.45642192  0.96473825  0.27530715     0.16300
O1103       O  0.32083580  0.89728644  0.38828841    -0.85200
O1104       O  0.35054711  0.84134847  0.37432651    -0.82200
C1105       C  0.37117349  0.82235216  0.36438742     0.98300
O1106       O  0.39823760  0.83256478  0.35548483    -0.82200
O1107       O  0.39152343  0.87107671  0.30341529    -0.84900
C1108       C  0.38052999  0.89354032  0.28712027     1.02800
O1109       O  0.37252274  0.91925756  0.29957483    -0.77600
O1110       O  0.32095220  0.90785399  0.33793834    -0.77800
C1111       C  0.30663281  0.89755522  0.36208025     1.02800
O1112       O  0.37699899  0.91758889  0.41833086    -0.85100
O1113       O  0.40215112  0.85917824  0.41276268    -0.82200
C1114       C  0.42990825  0.86885558  0.40842139     0.98300
O1115       O  0.43780709  0.88153100  0.38276426    -0.82200
O1116       O  0.43538316  0.91827555  0.33029715    -0.84800
C1117       C  0.43034485  0.94584184  0.34120968     1.02800
O1118       O  0.40271263  0.95321140  0.34945086    -0.77700
O1119       O  0.35107104  0.94884611  0.38558101    -0.77800
C1120       C  0.36554775  0.94422828  0.41154716     1.02800
Cr1121     Cr  0.36361368  0.87992418  0.39588683     1.93700
Cr1122     Cr  0.41327946  0.87706645  0.34390172     1.93200
Cr1123     Cr  0.36276067  0.92980499  0.34397411     1.39100
O1124       O  0.37995693  0.89541134  0.36077764    -1.22900
O1125       O  0.36743487  0.64910029  0.34360333    -0.85200
O1126       O  0.37874626  0.67714997  0.40004178    -0.82200
C1127       C  0.35256633  0.69134562  0.39875969     0.98300
O1128       O  0.32805847  0.67692319  0.40834347    -0.82200
O1129       O  0.29005747  0.62418033  0.41946663    -0.84900
C1130       C  0.27761807  0.61678184  0.39347403     1.02800
O1131       O  0.29418250  0.60715405  0.37088958    -0.77600
O1132       O  0.34753045  0.60188839  0.33394298    -0.77800
C1133       C  0.35764704  0.62898095  0.32426586     1.02800
O1134       O  0.40412218  0.59613917  0.36268145    -0.85100
O1135       O  0.40785619  0.62061462  0.42084845    -0.82200
C1136       C  0.40127577  0.63293444  0.44683988     0.98300
O1137       O  0.37531681  0.64726281  0.45085060    -0.82200
O1138       O  0.33990443  0.59455848  0.45411496    -0.84800
C1139       C  0.33171205  0.56688157  0.44651021     1.02800
O1140       O  0.32049540  0.56235135  0.41875354    -0.77700
O1141       O  0.37295715  0.56063850  0.38367448    -0.77800
C1142       C  0.39923539  0.56845433  0.37256285     1.02800
Cr1143     Cr  0.38702067  0.63474347  0.38274415     1.93700
Cr1144     Cr  0.33411836  0.63490872  0.43078716     1.93200
Cr1145     Cr  0.33460358  0.58537982  0.37784187     1.39100
O1146       O  0.35135543  0.61834416  0.39679655    -1.22900
O1147       O  0.05712630  0.64662026  0.41957684    -0.85200
O1148       O  0.06799345  0.61314406  0.36712050    -0.82200
C1149       C  0.07959462  0.59182363  0.35031368     0.98300
O1150       O  0.07949782  0.56365518  0.36024399    -0.82200
O1151       O  0.13248528  0.56893426  0.39323913    -0.84900
C1152       C  0.15050266  0.58171735  0.41280563     1.02800
O1153       O  0.14157738  0.58672863  0.44067404    -0.77600
O1154       O  0.10630905  0.63855258  0.43161432    -0.77800
C1155       C  0.08508073  0.65608688  0.42025625     1.02800
O1156       O  0.01853905  0.60459516  0.44800540    -0.85100
O1157       O  0.02224417  0.56554735  0.38501159    -0.82200
C1158       C  0.02711679  0.53558320  0.38433554     0.98300
O1159       O  0.04960759  0.52492476  0.40249533    -0.82200
O1160       O  0.11298045  0.52700040  0.44258547    -0.84800
C1161       C  0.11693387  0.53347391  0.47213625     1.02800
O1162       O  0.10169464  0.55788704  0.48258788    -0.77700
O1163       O  0.05934643  0.61921225  0.47732771    -0.77800
C1164       C  0.02925006  0.62073397  0.47182368     1.02800
Cr1165     Cr  0.04392610  0.60418829  0.40669722     1.93700
Cr1166     Cr  0.09189326  0.54851057  0.40282256     1.93200
Cr1167     Cr  0.09902807  0.59888444  0.45581017     1.39100
O1168       O  0.07689268  0.58234499  0.42345482    -1.22900
O1169       O  0.15695744  0.87454939  0.36051007    -0.85200
O1170       O  0.10153739  0.89047143  0.33125104    -0.82200
C1171       C  0.10181000  0.86505840  0.31632234     0.98300
O1172       O  0.09245339  0.83987085  0.33002334    -0.82200
O1173       O  0.08155688  0.79857147  0.38074447    -0.84900
C1174       C  0.10678416  0.78476425  0.38904018     1.02800
O1175       O  0.12964713  0.80019312  0.39998307    -0.77600
O1176       O  0.16699353  0.85283585  0.40706600    -0.77800
C1177       C  0.17642387  0.86313998  0.38018081     1.02800
O1178       O  0.13884989  0.91005042  0.41338134    -0.85100
O1179       O  0.07998548  0.91596489  0.38832582    -0.82200
C1180       C  0.05369635  0.90919720  0.37595174     0.98300
O1181       O  0.04994458  0.88396052  0.36058489    -0.82200
O1182       O  0.04627859  0.84615078  0.41151396    -0.84800
C1183       C  0.05379473  0.83678577  0.43894137     1.02800
O1184       O  0.08154520  0.82571853  0.44375831    -0.77700
O1185       O  0.11724229  0.87798993  0.44759175    -0.77800
C1186       C  0.12828315  0.90456037  0.44047221     1.02800
Cr1187     Cr  0.11835948  0.89513917  0.37441163     1.93700
Cr1188     Cr  0.06994119  0.84274035  0.37160001     1.93200
Cr1189     Cr  0.12271704  0.84034106  0.42210972     1.39100
O1190       O  0.10389627  0.85889896  0.38937675    -1.22900
O1191       O  0.10866731  0.82283587  0.10979926    -0.85200
O1192       O  0.12075316  0.85282604  0.16519543    -0.82200
C1193       C  0.13155780  0.87327253  0.18372561     0.98300
O1194       O  0.14205275  0.89981645  0.17310206    -0.82200
O1195       O  0.19568146  0.89346719  0.13780461    -0.84900
C1196       C  0.21211625  0.88394303  0.11529664     1.02800
O1197       O  0.19952101  0.87427639  0.08993744    -0.77600
O1198       O  0.15949379  0.82216037  0.10092955    -0.77800
C1199       C  0.13468609  0.80823542  0.11057093     1.02800
O1200       O  0.08118332  0.87979838  0.08615015    -0.85100
O1201       O  0.08613523  0.90622431  0.14405399    -0.82200
C1202       C  0.09192729  0.93364072  0.13387297     0.98300
O1203       O  0.11821290  0.94041903  0.12236192    -0.82200
O1204       O  0.17118325  0.93575985  0.08821724    -0.84800
C1205       C  0.15953176  0.93098653  0.06079690     1.02800
O1206       O  0.15049091  0.90348922  0.05375693    -0.77700
O1207       O  0.11366173  0.85187060  0.05733027    -0.77800
C1208       C  0.08796798  0.86704399  0.06032243     1.02800
Cr1209     Cr  0.10176453  0.86641662  0.12525346     1.93700
Cr1210     Cr  0.15566674  0.91481866  0.12933698     1.93200
Cr1211     Cr  0.15511883  0.86375905  0.07784591     1.39100
O1212       O  0.13812065  0.88149055  0.11121335    -1.22900
O1213       O  0.40897828  0.85428992  0.06218436    -0.85200
O1214       O  0.35802094  0.88786320  0.07362215    -0.82200
C1215       C  0.34087854  0.90759766  0.08705069     0.98300
O1216       O  0.35032414  0.93573824  0.08995557    -0.82200
O1217       O  0.38648674  0.92552222  0.14032502    -0.84900
C1218       C  0.40703708  0.91300415  0.15780752     1.02800
O1219       O  0.43486683  0.90998155  0.14830871    -0.77600
O1220       O  0.42337245  0.86092216  0.11103230    -0.77800
C1221       C  0.41138445  0.84401539  0.08984033     1.02800
O1222       O  0.43800843  0.89745983  0.02491840    -0.85100
O1223       O  0.37601273  0.93806660  0.03075704    -0.82200
C1224       C  0.37465672  0.96764231  0.03758814     0.98300
O1225       O  0.39176461  0.97705524  0.06125033    -0.82200
O1226       O  0.43382742  0.97057250  0.12250724    -0.84800
C1227       C  0.46369531  0.96429830  0.12426402     1.02800
O1228       O  0.47373291  0.94102077  0.10717977    -0.77700
O1229       O  0.46768359  0.88047476  0.06449789    -0.77800
C1230       C  0.46108588  0.87965035  0.03480625     1.02800
Cr1231     Cr  0.39715273  0.89771221  0.05035985     1.93700
Cr1232     Cr  0.39365701  0.95001054  0.10155621     1.93200
Cr1233     Cr  0.44752595  0.90014128  0.10458869     1.39100
O1234       O  0.41440840  0.91764324  0.08396639    -1.22900
O1235       O  0.11686041  0.66330824  0.11829044    -0.85200
O1236       O  0.16899697  0.62895328  0.13311249    -0.82200
C1237       C  0.18622061  0.60733851  0.14424288     0.98300
O1238       O  0.17458638  0.58115552  0.15410243    -0.82200
O1239       O  0.13666687  0.59103475  0.20655641    -0.84900
C1240       C  0.11404026  0.60281115  0.22159543     1.02800
O1241       O  0.08941553  0.61271210  0.20773488    -0.77600
O1242       O  0.10388017  0.66444771  0.16838907    -0.77800
C1243       C  0.11436923  0.67829959  0.14384441     1.02800
O1244       O  0.09048584  0.60841562  0.08928929    -0.85100
O1245       O  0.14637901  0.57797719  0.09683290    -0.82200
C1246       C  0.13368781  0.55154170  0.10182494     0.98300
O1247       O  0.12225086  0.54476466  0.12821662    -0.82200
O1248       O  0.08636134  0.55139063  0.18012188    -0.84800
C1249       C  0.05959848  0.55741787  0.16738409     1.02800
O1250       O  0.05421724  0.58508249  0.15729757    -0.77700
O1251       O  0.06278755  0.63734589  0.12171428    -0.77800
C1252       C  0.06516052  0.62216041  0.09630759     1.02800
Cr1253     Cr  0.12951904  0.61867914  0.11197688     1.93700
Cr1254     Cr  0.12913494  0.56975096  0.16610042     1.93200
Cr1255     Cr  0.08002152  0.62364388  0.16319110     1.39100
O1256       O  0.11334861  0.60424823  0.14771379    -1.22900
O1257       O  0.38504447  0.61413860  0.17844133    -0.85200
O1258       O  0.33249490  0.63246854  0.14653327    -0.82200
C1259       C  0.31470792  0.64209402  0.12472304     0.98300
O1260       O  0.32589638  0.64923011  0.09761921    -0.82200
O1261       O  0.36361608  0.70039045  0.10773752    -0.84900
C1262       C  0.38626881  0.71623275  0.11860657     1.02800
O1263       O  0.41192827  0.70337918  0.12697395    -0.77600
O1264       O  0.39768877  0.66406437  0.17795660    -0.77800
C1265       C  0.38556794  0.64031151  0.19201897     1.02800
O1266       O  0.40739068  0.58411839  0.12390718    -0.85100
O1267       O  0.35145711  0.59325320  0.09496401    -0.82200
C1268       C  0.36417357  0.59713228  0.06843388     0.98300
O1269       O  0.37722085  0.62276601  0.06107517    -0.82200
O1270       O  0.41259982  0.67559536  0.06540132    -0.84800
C1271       C  0.43948553  0.66279400  0.07012237     1.02800
O1272       O  0.44622053  0.65286210  0.09767818    -0.77700
O1273       O  0.43865937  0.61644495  0.15002151    -0.77800
C1274       C  0.43393139  0.59061454  0.13575888     1.02800
Cr1275     Cr  0.37015096  0.60841709  0.13491988     1.93700
Cr1276     Cr  0.37082981  0.66102395  0.08528009     1.93200
Cr1277     Cr  0.42152346  0.65853910  0.13728047     1.39100
O1278       O  0.38761831  0.64293437  0.11904332    -1.22900
C1279       C  0.23261609  0.63843775  0.15969390    -0.12100
C1280       C  0.22027790  0.61289494  0.14266589     0.04900
C1281       C  0.23857400  0.59904871  0.11866103    -0.07400
C1282       C  0.26836807  0.61134056  0.11164274    -0.08100
C1283       C  0.28090786  0.63655405  0.12884198    -0.02700
C1284       C  0.26313770  0.64982567  0.15362744     0.04200
N1285       N  0.27503742  0.67525601  0.17235588     0.66700
H1286       H  0.21827886  0.64992169  0.17732716     0.15600
H1287       H  0.28236357  0.60011127  0.09356255     0.15300
N1288       N  0.22739340  0.57279585  0.10068693     0.74400
O1289       O  0.26607615  0.70303547  0.16577623    -0.39100
O1290       O  0.28436109  0.66923975  0.20016454    -0.39000
O1291       O  0.21803052  0.57778178  0.07268993    -0.39700
O1292       O  0.23729494  0.54552641  0.10805469    -0.39800
C1293       C  0.38003289  0.76065708  0.08362163    -0.12100
C1294       C  0.38541107  0.75012562  0.11454706     0.04900
C1295       C  0.39578537  0.77127856  0.13782468    -0.07400
C1296       C  0.40255115  0.80227553  0.12922029    -0.08100
C1297       C  0.40044037  0.81212891  0.09754444    -0.02700
C1298       C  0.38781829  0.79126397  0.07465332     0.04200
N1299       N  0.38378533  0.79966296  0.04203226     0.66700
H1300       H  0.37225598  0.74432391  0.06560074     0.15600
H1301       H  0.41030605  0.81828512  0.14729958     0.15300
N1302       N  0.39945076  0.76215172  0.17022388     0.74400
O1303       O  0.40501855  0.79169224  0.02277016    -0.39100
O1304       O  0.35595983  0.80324069  0.03163960    -0.39000
O1305       O  0.42715093  0.75832242  0.18094178    -0.39700
O1306       O  0.37771236  0.76939985  0.18925145    -0.39800
C1307       C  0.14934013  0.72005419  0.12319217    -0.12100
C1308       C  0.12354525  0.71203639  0.14271631     0.04900
C1309       C  0.10453556  0.73642240  0.15469997    -0.07400
C1310       C  0.11007134  0.76763673  0.14488005    -0.08100
C1311       C  0.13425964  0.77539818  0.12324006    -0.02700
C1312       C  0.15480106  0.75126572  0.11327442     0.04200
N1313       N  0.17957488  0.75701268  0.09105626     0.66700
H1314       H  0.16428277  0.70161356  0.11389395     0.15600
H1315       H  0.09417923  0.78572754  0.15304846     0.15300
N1316       N  0.07775114  0.73008162  0.17433652     0.74400
O1317       O  0.20774549  0.75780299  0.10117150    -0.39100
O1318       O  0.17473825  0.74999710  0.06246580    -0.39000
O1319       O  0.08036096  0.73467217  0.20369546    -0.39700
O1320       O  0.05047834  0.73071147  0.16196381    -0.39800
C1321       C  0.26420480  0.86297475  0.10311791    -0.12100
C1322       C  0.24642608  0.88704167  0.11655981     0.04900
C1323       C  0.26119291  0.91592878  0.12452264    -0.07400
C1324       C  0.29234614  0.92138056  0.11550464    -0.08100
C1325       C  0.30941432  0.89846301  0.09903913    -0.02700
C1326       C  0.29567185  0.86811655  0.09481293     0.04200
N1327       N  0.31240239  0.84221183  0.08155091     0.66700
H1328       H  0.25319841  0.84050185  0.09771996     0.15600
H1329       H  0.30264866  0.94425190  0.12047918     0.15300
N1330       N  0.24466711  0.94115501  0.13943764     0.74400
O1331       O  0.32319772  0.82141829  0.10030404    -0.39100
O1332       O  0.30523919  0.83414067  0.05375698    -0.39000
O1333       O  0.25058858  0.94637528  0.16822665    -0.39700
O1334       O  0.23482689  0.96377976  0.12237031    -0.39800
C1335       C  0.10671446  0.83980689  0.26413797    -0.12100
C1336       C  0.11262854  0.86594343  0.28317006     0.04900
C1337       C  0.12852051  0.89263570  0.26981649    -0.07400
C1338       C  0.13640151  0.89303370  0.23793234    -0.08100
C1339       C  0.12839318  0.86790519  0.21824384    -0.02700
C1340       C  0.11409519  0.84051414  0.23196974     0.04200
N1341       N  0.10592358  0.81321617  0.21408525     0.66700
H1342       H  0.09529690  0.81901687  0.27390350     0.15600
H1343       H  0.14755345  0.91408177  0.22839421     0.15300
N1344       N  0.13650085  0.92023675  0.28750718     0.74400
O1345       O  0.12402112  0.78953166  0.21604981    -0.39100
O1346       O  0.07701494  0.80865328  0.20772089    -0.39000
O1347       O  0.16534625  0.92507291  0.29385094    -0.39700
O1348       O  0.11835579  0.94387485  0.28534186    -0.39800
C1349       C  0.10135005  0.62922789  0.27087230    -0.12100
C1350       C  0.11405957  0.60280313  0.25598121     0.04900
C1351       C  0.11915655  0.57478820  0.27343196    -0.07400
C1352       C  0.10930290  0.57303111  0.30462803    -0.08100
C1353       C  0.09328185  0.59825821  0.31882716    -0.02700
C1354       C  0.09076908  0.62727988  0.30202060     0.04200
N1355       N  0.07537569  0.65435790  0.31443434     0.66700
H1356       H  0.09734635  0.65079781  0.25749362     0.15600
H1357       H  0.11261908  0.55078346  0.31699871     0.15300
N1358       N  0.13051934  0.54647862  0.25924335     0.74400
O1359       O  0.04777089  0.66021921  0.30441238    -0.39100
O1360       O  0.09255984  0.67722103  0.32315887    -0.39000
O1361       O  0.15813341  0.53733011  0.26625650    -0.39700
O1362       O  0.11045272  0.52612693  0.25041075    -0.39800
C1363       C  0.07857518  0.73553820  0.37947079    -0.12100
C1364       C  0.10673619  0.74997011  0.38948249     0.04900
C1365       C  0.12980983  0.73143136  0.40538361    -0.07400
C1366       C  0.12279687  0.70014618  0.41349493    -0.08100
C1367       C  0.09260743  0.68759425  0.40771267    -0.02700
C1368       C  0.07045708  0.70551206  0.38984477     0.04200
N1369       N  0.03853998  0.69543231  0.38419823     0.66700
H1370       H  0.06081311  0.74874211  0.36646933     0.15600
H1371       H  0.14040547  0.68645075  0.42615372     0.15300
N1372       N  0.15972164  0.74388366  0.41516064     0.74400
O1373       O  0.03060856  0.68828939  0.35639962    -0.39100
O1374       O  0.01724959  0.70527762  0.40250966    -0.39000
O1375       O  0.16373529  0.74999869  0.44408543    -0.39700
O1376       O  0.18370012  0.73771858  0.39858800    -0.39800
C1377       C  0.34489406  0.61701641  0.26859956    -0.12100
C1378       C  0.36097844  0.63618118  0.29005451     0.04900
C1379       C  0.38171535  0.66010584  0.27805900    -0.07400
C1380       C  0.38771537  0.66239140  0.24566645    -0.08100
C1381       C  0.37360681  0.64143564  0.22466641    -0.02700
C1382       C  0.35063568  0.61954374  0.23621735     0.04200
N1383       N  0.33263478  0.59946527  0.21582565     0.66700
H1384       H  0.32824229  0.59938427  0.27695174     0.15600
H1385       H  0.40472118  0.67964251  0.23722170     0.15300
N1386       N  0.39776481  0.68208699  0.29794979     0.74400
O1387       O  0.34106528  0.57096608  0.21326537    -0.39100
O1388       O  0.30385319  0.60616047  0.21111601    -0.39000
O1389       O  0.42687809  0.67783186  0.30348642    -0.39700
O1390       O  0.38697593  0.70987237  0.29910525    -0.39800
C1391       C  0.19292599  0.62023069  0.41785780    -0.12100
C1392       C  0.18172682  0.59285953  0.40317046     0.04900
C1393       C  0.20030450  0.57802132  0.37992729    -0.07400
C1394       C  0.23070931  0.58933614  0.37397101    -0.08100
C1395       C  0.24320565  0.61440662  0.39159544    -0.02700
C1396       C  0.22345673  0.63101969  0.41252257     0.04200
N1397       N  0.23410238  0.65796191  0.42981594     0.66700
H1398       H  0.17830594  0.63282551  0.43447409     0.15600
H1399       H  0.24553475  0.57630200  0.35790609     0.15300
N1400       N  0.19039876  0.54982821  0.36428174     0.74400
O1401       O  0.22502878  0.68498267  0.42066308    -0.39100
O1402       O  0.24166754  0.65418061  0.45852445    -0.39000
O1403       O  0.18183054  0.55197108  0.33570704    -0.39700
O1404       O  0.20097520  0.52365950  0.37433301    -0.39800
C1405       C  0.40862436  0.87715006  0.24000677    -0.12100
C1406       C  0.38189875  0.89169275  0.25279785     0.04900
C1407       C  0.36135928  0.90912256  0.23296970    -0.07400
C1408       C  0.36968919  0.91456182  0.20173064    -0.08100
C1409       C  0.39826167  0.90301418  0.18976163    -0.02700
C1410       C  0.41711994  0.88266697  0.20873344     0.04200
N1411       N  0.44507062  0.86757930  0.19734577     0.66700
H1412       H  0.42438936  0.86334118  0.25484847     0.15600
H1413       H  0.35407614  0.92888702  0.18724322     0.15300
N1414       N  0.33183997  0.92138996  0.24367721     0.74400
O1415       O  0.47161523  0.87973448  0.20396922    -0.39100
O1416       O  0.44384114  0.83823594  0.19211013    -0.39000
O1417       O  0.32982264  0.95074307  0.24858477    -0.39700
O1418       O  0.30693609  0.90639267  0.23652723    -0.39800
C1419       C  0.26634396  0.86291485  0.38551905    -0.12100
C1420       C  0.27394191  0.88510628  0.36170827     0.04900
C1421       C  0.24984190  0.89554069  0.34106167    -0.07400
C1422       C  0.21868869  0.88565523  0.34634404    -0.08100
C1423       C  0.21054879  0.86613957  0.37234648    -0.02700
C1424       C  0.23516734  0.85369459  0.39130514     0.04200
N1425       N  0.22955898  0.83223062  0.41696000     0.66700
H1426       H  0.28465809  0.85343299  0.40079692     0.15600
H1427       H  0.20065160  0.89511853  0.33103795     0.15300
N1428       N  0.25551175  0.91781592  0.31609411     0.74400
O1429       O  0.23534010  0.80327261  0.41273669    -0.39100
O1430       O  0.23087057  0.84284881  0.44475894    -0.39000
O1431       O  0.25407911  0.90808793  0.28797472    -0.39700
O1432       O  0.25009462  0.94669366  0.32121644    -0.39800
C1433       C  0.38083384  0.73315205  0.36969570    -0.12100
C1434       C  0.35313075  0.72425339  0.38602465     0.04900
C1435       C  0.32939790  0.74728482  0.39031447    -0.07400
C1436       C  0.33504290  0.77858750  0.38051334    -0.08100
C1437       C  0.36424099  0.78793411  0.36710977    -0.02700
C1438       C  0.38690158  0.76434647  0.36082595     0.04200
N1439       N  0.41720776  0.77127256  0.34743123     0.66700
H1440       H  0.39909249  0.71599534  0.36486217     0.15600
H1441       H  0.31689832  0.79591204  0.38508886     0.15300
N1442       N  0.30006210  0.74035201  0.40562865     0.74400
O1443       O  0.44095820  0.77195834  0.36568149    -0.39100
O1444       O  0.42158098  0.76512270  0.31861565    -0.39600
O1445       O  0.29651815  0.74936610  0.43378901    -0.39700
O1446       O  0.27569716  0.73697315  0.38855032    -0.39800
C1447       C  0.46372915  0.65793323  0.54304239     0.30200
C1448       C  0.00625263  0.63559788  0.99655922     0.30200
C1449       C  0.44926436  0.63788547  0.01506071    -0.06000
C1450       C  0.47980161  0.68587921  0.52586932    -0.06800
C1451       C  0.99236112  0.63833426  0.55354603    -0.06700
C1452       C  0.47104826  0.62853061  0.99155382    -0.06000
C1453       C  0.00205349  0.67390029  0.00247766    -0.06800
C1454       C  0.01320284  0.62860880  0.52975427    -0.06700
C1455       C  0.45431661  0.62588978  0.96400429    -0.32000
N1456       N  0.42378374  0.63285680  0.96945032     0.14500
C1457       C  0.42033413  0.64106760  0.99999306    -0.32100
H1458       H  0.39916868  0.65164195  0.00957874     0.16400
C1459       C  0.01098404  0.70480646  0.99131294    -0.31000
N1460       N  0.49661748  0.73324295  0.50783479     0.13200
C1461       C  0.47712653  0.71855223  0.52904922    -0.31000
C1462       C  0.04120504  0.62057392  0.54425390    -0.31300
N1463       N  0.03814778  0.62563382  0.57538447     0.13700
H1464       H  0.06346502  0.61496992  0.53313938     0.16300
C1465       C  0.00912000  0.63700642  0.58139462    -0.31300
H1466       H  0.00240772  0.64666277  0.60398241     0.16300
H1467       H  0.46232821  0.73024618  0.54526517     0.16300
H1468       H  0.46416604  0.62299922  0.94061708     0.16400
H1469       H  0.02755844  0.70910770  0.97160874     0.16300
C1470       C  0.02700544  0.83793785  0.96439670     0.30200
C1471       C  0.48556454  0.86032775  0.51291134     0.30200
C1472       C  0.49625786  0.85882379  0.95372419    -0.06000
C1473       C  0.01319395  0.81026488  0.98374503    -0.06800
C1474       C  0.04161822  0.86462569  0.49147821    -0.06700
C1475       C  0.47709615  0.86787616  0.47866907    -0.06000
C1476       C  0.49340937  0.82230718  0.50983566    -0.06800
C1477       C  0.51900964  0.87439610  0.51544873    -0.06700
C1478       C  0.44535871  0.86992380  0.96240975    -0.32000
N1479       N  0.44942803  0.86506032  0.93129919     0.14500
C1480       C  0.47969485  0.85755477  0.92571605    -0.32100
H1481       H  0.48777209  0.84923804  0.90304516     0.16400
C1482       C  0.48407388  0.79138571  0.52048687    -0.31000
N1483       N  0.49986640  0.76741975  0.50453277     0.13200
C1484       C  0.01695320  0.77765079  0.98167217    -0.31000
C1485       C  0.03570861  0.88135909  0.54105619    -0.31300
N1486       N  0.06653564  0.87519115  0.53649282     0.13700
H1487       H  0.02575624  0.88586802  0.56406961     0.16300
C1488       C  0.07052424  0.86456760  0.50680709    -0.31300
H1489       H  0.09194176  0.85332911  0.49858754     0.16300
H1490       H  0.03169723  0.76582365  0.96532077     0.16300
H1491       H  0.42259134  0.87345329  0.97350445     0.16400
H1492       H  0.46590879  0.78695077  0.53861499     0.16300
C1493       C  0.13570024  0.50559855  0.99462141     0.30200
C1494       C  0.15521827  0.96103356  0.53840648     0.30200
C1495       C  0.12379104  0.97122933  0.98667621    -0.06000
C1496       C  0.17394882  0.50036755  0.99939166    -0.06800
C1497       C  0.12707870  0.51310112  0.52986789    -0.06700
C1498       C  0.13291842  0.94763920  0.00853591    -0.06000
C1499       C  0.18303748  0.97887430  0.52288567    -0.06800
C1500       C  0.13567199  0.48880140  0.55157763    -0.06700
C1501       C  0.13319859  0.91941820  0.99263985    -0.32000
N1502       N  0.12495796  0.92486863  0.96260439     0.14500
C1503       C  0.12017220  0.95604848  0.95803178    -0.32100
H1504       H  0.11672618  0.96679849  0.93496672     0.16400
C1505       C  0.21569646  0.97605748  0.52583918    -0.31000
N1506       N  0.23006519  0.99746823  0.50650749     0.13200
C1507       C  0.20442323  0.51182647  0.98988443    -0.31000
C1508       C  0.13805420  0.50243756  0.58084273    -0.31300
N1509       N  0.13185411  0.53343219  0.57774699     0.13700
H1510       H  0.14758127  0.49175861  0.60214526     0.16300
C1511       C  0.12604119  0.54049820  0.54716931    -0.31300
H1512       H  0.12404033  0.56438562  0.53789266     0.16300
H1513       H  0.20808951  0.53098325  0.97302004     0.16300
H1514       H  0.14235003  0.89685207  0.00055955     0.16400
H1515       H  0.22791056  0.95944555  0.54104015     0.16300
C1516       C  0.35738634  0.99269255  0.51576163     0.30200
C1517       C  0.33690764  0.53914936  0.97095808     0.30200
C1518       C  0.36973149  0.99025143  0.48168935    -0.06000
C1519       C  0.31912351  0.99630749  0.50933545    -0.06800
C1520       C  0.36484273  0.52726214  0.52278947    -0.06700
C1521       C  0.35736185  0.01321138  0.95914734    -0.06000
C1522       C  0.30956031  0.51986069  0.98560300    -0.06800
C1523       C  0.35566495  0.55056148  0.50057483    -0.06700
C1524       C  0.35545940  0.99853028  0.93015488    -0.32000
N1525       N  0.36535031  0.96841943  0.93345366     0.14500
C1526       C  0.37275783  0.96296271  0.96401178    -0.32100
H1527       H  0.37714633  0.93961133  0.97364107     0.16400
C1528       C  0.27684245  0.52173866  0.98259879    -0.31000
N1529       N  0.26417864  0.50068227  0.50134700     0.13200
C1530       C  0.28851276  0.98510524  0.51893032    -0.31000
C1531       C  0.35398646  0.57862360  0.51647682    -0.31300
N1532       N  0.36143268  0.57319455  0.54678931     0.13700
H1533       H  0.34511848  0.60115674  0.50806593     0.16300
C1534       C  0.36702731  0.54214678  0.55153602    -0.31300
H1535       H  0.37066534  0.53121167  0.57451347     0.16300
H1536       H  0.28466022  0.96665214  0.53650613     0.16300
H1537       H  0.34363978  0.00763952  0.90923407     0.16400
H1538       H  0.26421668  0.53823132  0.96751277     0.16300
C1539       C  0.48885193  0.98767721  0.64494683     0.30200
C1540       C  0.03409994  0.53330155  0.66319594     0.30200
C1541       C  0.48441803  0.52111143  0.63103011    -0.06000
C1542       C  0.49263238  0.99440587  0.68307046    -0.06800
C1543       C  0.52345558  0.98165982  0.63641977    -0.06700
C1544       C  0.50665521  0.54410986  0.64038781    -0.06000
C1545       C  0.01548556  0.51850597  0.69091280    -0.06800
C1546       C  0.04611931  0.00419938  0.64360258    -0.06700
C1547       C  0.49130286  0.57261247  0.63923969    -0.32000
N1548       N  0.46178817  0.56782855  0.62866228     0.14500
C1549       C  0.45708996  0.53691933  0.62352298    -0.32100
H1550       H  0.43396420  0.52667831  0.61951995     0.16400
C1551       C  0.01774397  0.52176586  0.72357538    -0.31000
N1552       N  0.49608762  0.50239451  0.73775933     0.13200
C1553       C  0.48172187  0.98484036  0.71377499    -0.31000
C1554       C  0.07480861  0.98940173  0.64544145    -0.31300
N1555       N  0.07025937  0.95883479  0.63825149     0.13700
H1556       H  0.09671723  0.99889323  0.65474824     0.16300
C1557       C  0.03942790  0.95312086  0.63270193    -0.31300
H1558       H  0.02928803  0.92978943  0.62956675     0.16300
H1559       H  0.46376515  0.96682897  0.71784214     0.16300
H1560       H  0.49886584  0.59458255  0.64986283     0.16400
H1561       H  0.03385005  0.53727776  0.73574611     0.16300
C1562       C  0.00241414  0.50989750  0.86522716     0.30200
C1563       C  0.45415028  0.96819741  0.84624034     0.30200
C1564       C  0.46751331  0.51927720  0.87358369    -0.06000
C1565       C  0.99853173  0.50379797  0.82701620    -0.06800
C1566       C  0.00416889  0.97549351  0.87618275    -0.06700
C1567       C  0.44406422  0.49749280  0.86447113    -0.06000
C1568       C  0.47344899  0.98253373  0.81883700    -0.06800
C1569       C  0.98085243  0.95345546  0.86666434    -0.06700
C1570       C  0.41593320  0.51370023  0.86354726    -0.32000
N1571       N  0.42148538  0.54378481  0.87163315     0.14500
C1572       C  0.45262720  0.54805014  0.87695510    -0.32100
H1573       H  0.46345427  0.57084395  0.88118734     0.16400
C1574       C  0.47148313  0.97910408  0.78624491    -0.31000
N1575       N  0.49317585  0.99818730  0.77199332     0.13200
C1576       C  0.00953590  0.51356095  0.79637915    -0.31000
C1577       C  0.99534268  0.92427623  0.86673017    -0.31300
N1578       N  0.02539725  0.92791637  0.87688862     0.13700
H1579       H  0.98629484  0.90288464  0.85605886     0.16300
C1580       C  0.03106679  0.95861521  0.88227524    -0.31300
H1581       H  0.05466395  0.96818562  0.88518478     0.16300
H1582       H  0.02796807  0.53123758  0.79246008     0.16300
H1583       H  0.39322525  0.50569044  0.85475906     0.16400
H1584       H  0.45498817  0.96405415  0.77399904     0.16300
O1585       O  0.31748691  0.89762773  0.88776664    -0.85200
O1586       O  0.34631423  0.84098039  0.87391727    -0.82200
C1587       C  0.36657065  0.82173936  0.86363245     0.98300
O1588       O  0.39383205  0.83157112  0.85495193    -0.82200
O1589       O  0.38676372  0.86943258  0.80303623    -0.84900
C1590       C  0.37594900  0.89165818  0.78636924     1.02800
O1591       O  0.36798870  0.91763427  0.79837825    -0.77600
O1592       O  0.31680213  0.90683830  0.83738961    -0.77800
C1593       C  0.30288216  0.89667561  0.86180844     1.02800
O1594       O  0.37391287  0.91726258  0.91744056    -0.85100
O1595       O  0.39853240  0.85858418  0.91197585    -0.82200
C1596       C  0.42628594  0.86822999  0.90737773     0.98300
O1597       O  0.43398340  0.88067865  0.88156583    -0.82200
O1598       O  0.43154084  0.91675642  0.82886160    -0.84800
C1599       C  0.42682064  0.94442258  0.83966303     1.02800
O1600       O  0.39915815  0.95216440  0.84757324    -0.77700
O1601       O  0.34813097  0.94870157  0.88467475    -0.77800
C1602       C  0.36271122  0.94402046  0.91066182     1.02800
Cr1603     Cr  0.35997496  0.87958639  0.89527573     1.93700
Cr1604     Cr  0.40911926  0.87587657  0.84301674     1.93200
Cr1605     Cr  0.35888541  0.92891426  0.84286801     1.39100
O1606       O  0.37614138  0.89467865  0.85996181    -1.22900
O1607       O  0.36285028  0.64590747  0.84127914    -0.85200
O1608       O  0.37614982  0.67680118  0.89636616    -0.82200
C1609       C  0.34967926  0.69047289  0.89651851     0.98300
O1610       O  0.32588307  0.67574083  0.90733924    -0.82200
O1611       O  0.28860511  0.62266369  0.91913661    -0.84900
C1612       C  0.27622476  0.61450425  0.89325997     1.02800
O1613       O  0.29288462  0.60489252  0.87076944    -0.77600
O1614       O  0.34589587  0.59717694  0.83440850    -0.77800
C1615       C  0.35446024  0.62402069  0.82316424     1.02800
O1616       O  0.40201231  0.59427588  0.86238889    -0.85100
O1617       O  0.40733807  0.62219264  0.91888682    -0.82200
C1618       C  0.40063644  0.63410996  0.94511197     0.98300
O1619       O  0.37422542  0.64757205  0.94941588    -0.82200
O1620       O  0.33931524  0.59411429  0.95393030    -0.84800
C1621       C  0.33026969  0.56649825  0.94698885     1.02800
O1622       O  0.31824735  0.56183911  0.91974501    -0.77700
O1623       O  0.37164187  0.55926089  0.88558773    -0.77800
C1624       C  0.39756469  0.56688248  0.87346788     1.02800
Cr1625     Cr  0.38457704  0.63379863  0.88068737     1.93700
Cr1626     Cr  0.33279411  0.63414931  0.93014811     1.93200
Cr1627     Cr  0.33301641  0.58328016  0.87865058     1.39100
O1628       O  0.34971752  0.61709533  0.89633332    -1.22900
O1629       O  0.05617973  0.64292349  0.92074536    -0.85200
O1630       O  0.06687238  0.61016139  0.86794592    -0.82200
C1631       C  0.07836037  0.58906844  0.85082539     0.98300
O1632       O  0.07827698  0.56073310  0.86035990    -0.82200
O1633       O  0.13148370  0.56518611  0.89300777    -0.84900
C1634       C  0.14963362  0.57767142  0.91262930     1.02800
O1635       O  0.14081165  0.58276133  0.94049687    -0.77600
O1636       O  0.10565760  0.63498593  0.93144242    -0.77800
C1637       C  0.08405850  0.65253798  0.92079435     1.02800
O1638       O  0.01796599  0.60040642  0.94868259    -0.85100
O1639       O  0.02135675  0.56242358  0.88551491    -0.82200
C1640       C  0.02607829  0.53249067  0.88501496     0.98300
O1641       O  0.04856910  0.52176328  0.90302541    -0.82200
O1642       O  0.11184349  0.52337865  0.94228392    -0.84800
C1643       C  0.11581104  0.52984221  0.97180434     1.02800
O1644       O  0.10077242  0.55429903  0.98235907    -0.77700
O1645       O  0.05901496  0.61558419  0.97735288    -0.77800
C1646       C  0.02886914  0.61672554  0.97223870     1.02800
Cr1647     Cr  0.04301842  0.60073269  0.90737129     1.93700
Cr1648     Cr  0.09082781  0.54508640  0.90275818     1.93200
Cr1649     Cr  0.09846945  0.59527397  0.95574314     1.39100
O1650       O  0.07611370  0.57884094  0.92361645    -1.22900
O1651       O  0.15392696  0.87179696  0.85939967    -0.85200
O1652       O  0.09787615  0.88759602  0.83034454    -0.82200
C1653       C  0.09912736  0.86240321  0.81516477     0.98300
O1654       O  0.08961622  0.83697849  0.82827687    -0.82200
O1655       O  0.07904649  0.79488353  0.87839035    -0.84900
C1656       C  0.10411474  0.78122887  0.88746319     1.02800
O1657       O  0.12675363  0.79685749  0.89860817    -0.77600
O1658       O  0.16319828  0.84987643  0.90605504    -0.77800
C1659       C  0.17302350  0.86008072  0.87931581     1.02800
O1660       O  0.13529793  0.90653041  0.91253228    -0.85100
O1661       O  0.07634058  0.91219886  0.88761653    -0.82200
C1662       C  0.05006869  0.90552966  0.87514371     0.98300
O1663       O  0.04635044  0.88036535  0.85956985    -0.82200
O1664       O  0.04309240  0.84158674  0.90976387    -0.84800
C1665       C  0.05073208  0.83231564  0.93719516     1.02800
O1666       O  0.07845514  0.82138979  0.94197914    -0.77700
O1667       O  0.11315868  0.87450507  0.94638881    -0.77800
C1668       C  0.12434230  0.90109958  0.93947485     1.02800
Cr1669     Cr  0.11489421  0.89188053  0.87342652     1.93700
Cr1670     Cr  0.06685811  0.83906187  0.86983320     1.93200
Cr1671     Cr  0.11926372  0.83686549  0.92076919     1.39100
O1672       O  0.10057844  0.85536673  0.88796425    -1.22900
O1673       O  0.10782277  0.82665209  0.60878921    -0.85200
O1674       O  0.12217740  0.85377868  0.66536359    -0.82200
C1675       C  0.13380487  0.87332438  0.68442341     0.98300
O1676       O  0.14436423  0.90018691  0.67462461    -0.82200
O1677       O  0.19705694  0.89483742  0.63856533    -0.84900
C1678       C  0.21298116  0.88542994  0.61572455     1.02800
O1679       O  0.20005815  0.87543421  0.59073086    -0.77600
O1680       O  0.15861633  0.82413754  0.60165601    -0.77800
C1681       C  0.13308210  0.81100727  0.61051589     1.02800
O1682       O  0.08205184  0.88488168  0.58789548    -0.85100
O1683       O  0.08848584  0.90840124  0.64744172    -0.82200
C1684       C  0.09405146  0.93581395  0.63736568     0.98300
O1685       O  0.12007155  0.94267460  0.62537239    -0.82200
O1686       O  0.17234827  0.93842106  0.59022330    -0.84800
C1687       C  0.16125247  0.93376882  0.56253604     1.02800
O1688       O  0.15221877  0.90635428  0.55516891    -0.77700
O1689       O  0.11374668  0.85650745  0.55844892    -0.77800
C1690       C  0.08867952  0.87264006  0.56170131     1.02800
Cr1691     Cr  0.10261639  0.86939092  0.62639435     1.93700
Cr1692     Cr  0.15731208  0.91661633  0.63113434     1.93200
Cr1693     Cr  0.15555338  0.86627954  0.57888061     1.39100
O1694       O  0.13912749  0.88403672  0.61244254    -1.22900
O1695       O  0.40942780  0.85391123  0.56420889    -0.85200
O1696       O  0.35893349  0.88877694  0.57444958    -0.82200
C1697       C  0.34167176  0.90907686  0.58684393     0.98300
O1698       O  0.35167076  0.93696486  0.59009027    -0.82200
O1699       O  0.38700530  0.92596250  0.64096280    -0.84900
C1700       C  0.40711541  0.91309440  0.65870173     1.02800
O1701       O  0.43522775  0.91041223  0.64979369    -0.77600
O1702       O  0.42460377  0.86109146  0.61280343    -0.77800
C1703       C  0.41259734  0.84379997  0.59196431     1.02800
O1704       O  0.43951483  0.89701632  0.52651718    -0.85100
O1705       O  0.37814916  0.93854363  0.53161292    -0.82200
C1706       C  0.37699686  0.96823014  0.53831342     0.98300
O1707       O  0.39400622  0.97754437  0.56208482    -0.82200
O1708       O  0.43517363  0.97059982  0.62379231    -0.84800
C1709       C  0.46505490  0.96442628  0.62545983     1.02800
O1710       O  0.47507769  0.94100131  0.60864673    -0.77700
O1711       O  0.46915953  0.88049346  0.56632748    -0.77800
C1712       C  0.46279305  0.87962794  0.53657299     1.02800
Cr1713     Cr  0.39847965  0.89775899  0.55167716     1.93700
Cr1714     Cr  0.39504517  0.95048046  0.60240029     1.93200
Cr1715     Cr  0.44861645  0.90029499  0.60621511     1.39100
O1716       O  0.41566307  0.91777031  0.58523377    -1.22900
O1717       O  0.11381883  0.66688814  0.61953134    -0.85200
O1718       O  0.16672181  0.63346851  0.63444540    -0.82200
C1719       C  0.18471096  0.61259703  0.64597760     0.98300
O1720       O  0.17359163  0.58600532  0.65532730    -0.82200
O1721       O  0.13562350  0.59442148  0.70733213    -0.84900
C1722       C  0.11277054  0.60526466  0.72263919     1.02800
O1723       O  0.08806066  0.61537115  0.70912039    -0.77600
O1724       O  0.10061413  0.66753979  0.66964127    -0.77800
C1725       C  0.11042496  0.68172576  0.64503643     1.02800
O1726       O  0.08877816  0.61165915  0.59046043    -0.85100
O1727       O  0.14533182  0.58234043  0.59773128    -0.82200
C1728       C  0.13336299  0.55552610  0.60254012     0.98300
O1729       O  0.12201155  0.54832742  0.62887903    -0.82200
O1730       O  0.08632998  0.55360130  0.68113924    -0.84800
C1731       C  0.05927623  0.55938092  0.66904072     1.02800
O1732       O  0.05343218  0.58699116  0.65915320    -0.77700
O1733       O  0.06018870  0.63936809  0.62328539    -0.77800
C1734       C  0.06329049  0.62511212  0.59739339     1.02800
Cr1735     Cr  0.12752190  0.62252418  0.61318513     1.93700
Cr1736     Cr  0.12843837  0.57328072  0.66694395     1.93200
Cr1737     Cr  0.07808114  0.62612309  0.66466484     1.39100
O1738       O  0.11174133  0.60754409  0.64886992    -1.22900
O1739       O  0.39200832  0.60942674  0.67871871    -0.85200
O1740       O  0.33637375  0.62826044  0.65042330    -0.82200
C1741       C  0.31728086  0.63955366  0.63033537     0.98300
O1742       O  0.32682270  0.64940970  0.60337291    -0.82200
O1743       O  0.36563127  0.69996735  0.61173000    -0.84900
C1744       C  0.38856897  0.71549962  0.62249896     1.02800
O1745       O  0.41411694  0.70227453  0.63048735    -0.77600
O1746       O  0.40316489  0.65982741  0.68017284    -0.77800
C1747       C  0.39520038  0.63442768  0.69421275     1.02800
O1748       O  0.41050141  0.58358671  0.62047956    -0.85100
O1749       O  0.35202596  0.59245788  0.59669763    -0.82200
C1750       C  0.36297783  0.59718220  0.56957946     0.98300
O1751       O  0.37536898  0.62316700  0.56232294    -0.82200
O1752       O  0.41230605  0.67502826  0.56613937    -0.84800
C1753       C  0.43989577  0.66342866  0.57045465     1.02800
O1754       O  0.44748853  0.65373555  0.59772249    -0.77700
O1755       O  0.44218362  0.61484269  0.64736487    -0.77800
C1756       C  0.43729632  0.58994316  0.63167498     1.02800
Cr1757     Cr  0.37379785  0.60608894  0.63563091     1.93700
Cr1758     Cr  0.37116480  0.66084423  0.58820048     1.93200
Cr1759     Cr  0.42428364  0.65708210  0.63802476     1.39100
O1760       O  0.38962753  0.64183761  0.62061382    -1.22900
C1761       C  0.22858860  0.65071001  0.63814167    -0.12100
C1762       C  0.21909843  0.61954004  0.64589117     0.04900
C1763       C  0.24262203  0.59610342  0.64981766    -0.07400
C1764       C  0.27439654  0.60417920  0.64586580    -0.08100
C1765       C  0.28349576  0.63480449  0.63658653    -0.02700
C1766       C  0.26029702  0.65830780  0.63266632     0.04200
N1767       N  0.26798831  0.68990181  0.62309517     0.66700
H1768       H  0.21129385  0.66922543  0.63499637     0.15600
H1769       H  0.29203105  0.58580275  0.64847503     0.15300
N1770       N  0.23517218  0.56354457  0.65540515     0.74400
O1771       O  0.26462989  0.69737045  0.59429570    -0.39100
O1772       O  0.26666312  0.71148153  0.64351042    -0.39000
O1773       O  0.23702068  0.54468449  0.63247911    -0.39700
O1774       O  0.23832686  0.55264164  0.68313030    -0.39800
C1775       C  0.37876026  0.76083726  0.58922905    -0.12100
C1776       C  0.38791260  0.74964302  0.61907082     0.04900
C1777       C  0.40241331  0.77018922  0.64073652    -0.07400
C1778       C  0.40894434  0.80112553  0.63150797    -0.08100
C1779       C  0.40262908  0.81160652  0.60050778    -0.02700
C1780       C  0.38680447  0.79114142  0.57928545     0.04200
N1781       N  0.38048227  0.79923022  0.54696492     0.66700
H1782       H  0.36820011  0.74498889  0.57219275     0.15600
H1783       H  0.42013343  0.81647005  0.64843017     0.15300
N1784       N  0.41097843  0.76037939  0.67202887     0.74400
O1785       O  0.40043347  0.79107747  0.52645546    -0.39100
O1786       O  0.35198671  0.80208053  0.53839426    -0.39000
O1787       O  0.43977486  0.75466701  0.67784476    -0.39700
O1788       O  0.39333448  0.76857449  0.69455693    -0.39800
C1789       C  0.14755589  0.72374828  0.63020969    -0.12100
C1790       C  0.11842091  0.71557452  0.64406786     0.04900
C1791       C  0.09586257  0.73936408  0.64922078    -0.07400
C1792       C  0.10234012  0.77026745  0.63927705    -0.08100
C1793       C  0.13065980  0.77826134  0.62337304    -0.02700
C1794       C  0.15386589  0.75464060  0.61973615     0.04200
N1795       N  0.18308346  0.76052891  0.60384264     0.66700
H1796       H  0.16482826  0.70554905  0.62567940     0.15600
H1797       H  0.08410292  0.78775168  0.64273791     0.15300
N1798       N  0.06496294  0.73244518  0.66119193     0.74400
O1799       O  0.20780866  0.76383306  0.62039838    -0.39100
O1800       O  0.18587245  0.75122958  0.57569041    -0.39000
O1801       O  0.05860414  0.74037075  0.68917097    -0.39700
O1802       O  0.04243535  0.72944788  0.64168343    -0.39800
C1803       C  0.26483628  0.86501979  0.60338477    -0.12100
C1804       C  0.24701362  0.88932588  0.61608446     0.04900
C1805       C  0.26107693  0.91906802  0.62181930    -0.07400
C1806       C  0.29220695  0.92439226  0.61275039    -0.08100
C1807       C  0.30963403  0.90077221  0.59768336    -0.02700
C1808       C  0.29588384  0.87036423  0.59406070     0.04200
N1809       N  0.31175866  0.84479789  0.57937834     0.66700
H1810       H  0.25399794  0.84225534  0.59888214     0.15600
H1811       H  0.30215181  0.94766365  0.61644084     0.15300
N1812       N  0.24366644  0.94522672  0.63393578     0.74400
O1813       O  0.32310677  0.82342293  0.59710678    -0.39100
O1814       O  0.30287307  0.83747981  0.55184059    -0.39000
O1815       O  0.24923254  0.95373394  0.66196848    -0.39700
O1816       O  0.23302809  0.96550494  0.61454086    -0.39800
C1817       C  0.10769214  0.83761157  0.76317305    -0.12100
C1818       C  0.11169798  0.86378247  0.78265808     0.04900
C1819       C  0.12790243  0.89087425  0.77053077    -0.07400
C1820       C  0.13736834  0.89185747  0.73910217    -0.08100
C1821       C  0.13077986  0.86686022  0.71874430    -0.02700
C1822       C  0.11703828  0.83875344  0.73152154     0.04200
N1823       N  0.11153767  0.81112491  0.71311307     0.66700
H1824       H  0.09640756  0.81639920  0.77216543     0.15600
H1825       H  0.14840386  0.91330123  0.73034807     0.15300
N1826       N  0.13468628  0.91824690  0.78905975     0.74400
O1827       O  0.13008762  0.78798836  0.71691919    -0.39100
O1828       O  0.08358702  0.80568596  0.70388136    -0.39000
O1829       O  0.16288313  0.92250920  0.79818824    -0.39700
O1830       O  0.11710746  0.94217625  0.78558406    -0.39800
C1831       C  0.10226516  0.62946009  0.77346832    -0.12100
C1832       C  0.11254480  0.60312192  0.75682846     0.04900
C1833       C  0.11476855  0.57354462  0.77213450    -0.07400
C1834       C  0.10474636  0.57044729  0.80313583    -0.08100
C1835       C  0.09166667  0.59610340  0.81934443    -0.02700
C1836       C  0.09188664  0.62636730  0.80459205     0.04200
N1837       N  0.07982208  0.65401141  0.81921751     0.66700
H1838       H  0.10030802  0.65215322  0.76158266     0.15600
H1839       H  0.10577162  0.54711223  0.81377118     0.15300
N1840       N  0.12354685  0.54543920  0.75587098     0.74400
O1841       O  0.05359931  0.66434607  0.80915002    -0.39100
O1842       O  0.09960748  0.67360359  0.83012038    -0.39000
O1843       O  0.15040053  0.53365214  0.76175672    -0.39700
O1844       O  0.10175707  0.52740003  0.74612666    -0.39800
C1845       C  0.07551505  0.73178978  0.88015737    -0.12100
C1846       C  0.10403445  0.74642698  0.88883544     0.04900
C1847       C  0.12758138  0.72825840  0.90452605    -0.07400
C1848       C  0.12108636  0.69696505  0.91302131    -0.08100
C1849       C  0.09087912  0.68413768  0.90819254    -0.02700
C1850       C  0.06790066  0.70186636  0.89117970     0.04200
N1851       N  0.03569911  0.69176718  0.88726928     0.66700
H1852       H  0.05718305  0.74475597  0.86773592     0.15600
H1853       H  0.13914508  0.68348603  0.92526102     0.15300
N1854       N  0.15744389  0.74115295  0.91387344     0.74400
O1855       O  0.02640680  0.68360124  0.86017477    -0.39100
O1856       O  0.01531509  0.70209629  0.90631740    -0.39000
O1857       O  0.16219747  0.74623370  0.94290374    -0.39700
O1858       O  0.18104251  0.73638194  0.89632445    -0.39800
C1859       C  0.37823923  0.60213270  0.77593123    -0.12100
C1860       C  0.36180099  0.62731750  0.78930374     0.04900
C1861       C  0.35863408  0.65593602  0.77185771    -0.07400
C1862       C  0.37142010  0.65842619  0.74141878    -0.08100
C1863       C  0.38760671  0.63302334  0.72808019    -0.02700
C1864       C  0.39142243  0.60473264  0.74593834     0.04200
N1865       N  0.40947400  0.57852786  0.73478747     0.66700
H1866       H  0.38227074  0.58063086  0.78942217     0.15600
H1867       H  0.36755225  0.67983051  0.72776578     0.15300
N1868       N  0.34138281  0.68229411  0.78365951     0.74400
O1869       O  0.43750984  0.57530702  0.74485225    -0.39100
O1870       O  0.39473810  0.55423751  0.72555102    -0.39000
O1871       O  0.35678884  0.70634403  0.79240582    -0.39700
O1872       O  0.31311434  0.68593764  0.77445497    -0.39800
C1873       C  0.19126918  0.61687530  0.91668530    -0.12100
C1874       C  0.18080748  0.58869318  0.90305554     0.04900
C1875       C  0.19997755  0.57307725  0.88087091    -0.07400
C1876       C  0.23037651  0.58448952  0.87512409    -0.08100
C1877       C  0.24197135  0.61086658  0.89146731    -0.02700
C1878       C  0.22157913  0.62809053  0.91115588     0.04200
N1879       N  0.23100095  0.65678033  0.92614995     0.66700
H1880       H  0.17607148  0.63005000  0.93229294     0.15600
H1881       H  0.24574971  0.57093964  0.86001744     0.15300
N1882       N  0.19044237  0.54440923  0.86584521     0.74400
O1883       O  0.22221543  0.68258155  0.91371077    -0.39100
O1884       O  0.23674498  0.65608364  0.95547777    -0.39000
O1885       O  0.18281327  0.54563713  0.83695462    -0.39700
O1886       O  0.20038986  0.51849692  0.87715075    -0.39800
C1887       C  0.40706201  0.87715717  0.74092461    -0.12100
C1888       C  0.37852445  0.88933739  0.75220110     0.04900
C1889       C  0.35749522  0.90461611  0.73121687    -0.07400
C1890       C  0.36694794  0.91055236  0.70033778    -0.08100
C1891       C  0.39732129  0.90203949  0.69010610    -0.02700
C1892       C  0.41686075  0.88353018  0.71023284     0.04200
N1893       N  0.44710193  0.87177451  0.70090136     0.66700
H1894       H  0.42327845  0.86501835  0.75672513     0.15600
H1895       H  0.35076024  0.92308368  0.68485971     0.15300
N1896       N  0.32647125  0.91419865  0.74037930     0.74400
O1897       O  0.47152724  0.88687669  0.70933860    -0.39100
O1898       O  0.44963357  0.84250066  0.69577510    -0.39000
O1899       O  0.32144443  0.94330198  0.74453152    -0.39700
O1900       O  0.30343783  0.89676417  0.73255863    -0.39800
C1901       C  0.26168394  0.86695622  0.89006383    -0.12100
C1902       C  0.27030371  0.88334726  0.86226745     0.04900
C1903       C  0.24765646  0.88600371  0.83769965    -0.07400
C1904       C  0.21658782  0.87545473  0.84294822    -0.08100
C1905       C  0.20731932  0.86247906  0.87233316    -0.02700
C1906       C  0.23088671  0.85659950  0.89533333     0.04200
N1907       N  0.22449648  0.84083244  0.92465096     0.66700
H1908       H  0.27881969  0.86258295  0.90865213     0.15600
H1909       H  0.19939824  0.87879044  0.82427836     0.15300
N1910       N  0.25494216  0.89956526  0.80754407     0.74400
O1911       O  0.23330345  0.81242966  0.92774293    -0.39100
O1912       O  0.22173012  0.85740243  0.94918818    -0.39000
O1913       O  0.25833765  0.88103609  0.78454884    -0.39700
O1914       O  0.24620286  0.92761042  0.80188108    -0.39800
C1915       C  0.37411056  0.73210131  0.86383335    -0.12100
C1916       C  0.34894025  0.72336653  0.88388169     0.04900
C1917       C  0.32664941  0.74667953  0.89208264    -0.07400
C1918       C  0.33183772  0.77820178  0.88287303    -0.08100
C1919       C  0.35908235  0.78738887  0.86583160    -0.02700
C1920       C  0.37958380  0.76348598  0.85502645     0.04200
N1921       N  0.40660908  0.77005824  0.83577850     0.66700
H1922       H  0.39072391  0.71455093  0.85572750     0.15600
H1923       H  0.31509456  0.79573036  0.89071750     0.15300
N1924       N  0.29933539  0.73970337  0.91070281     0.74400
O1925       O  0.43361398  0.76990374  0.84875131    -0.39100
O1926       O  0.40473738  0.76405677  0.80662322    -0.39600
O1927       O  0.29944408  0.74792160  0.93934415    -0.39700
O1928       O  0.27302175  0.73717297  0.89662550    -0.39800
C1929       C  0.96249347  0.15420695  0.04279743     0.30200
C1930       C  0.50735155  0.14025381  0.49694181     0.30200
C1931       C  0.95222690  0.13836602  0.51613109    -0.06000
C1932       C  0.97849362  0.18198572  0.02552631    -0.06800
C1933       C  0.49118748  0.13775731  0.05408289    -0.06700
C1934       C  0.97389851  0.12925463  0.49247449    -0.06000
C1935       C  0.50287472  0.17848631  0.50292089    -0.06800
C1936       C  0.51180944  0.12787312  0.03028974    -0.06700
C1937       C  0.95681724  0.12563988  0.46532916    -0.32000
N1938       N  0.92622207  0.13182428  0.47130206     0.14500
C1939       C  0.92299719  0.14043189  0.50168915    -0.32100
H1940       H  0.90173614  0.15067436  0.51141928     0.16400
C1941       C  0.51248955  0.20934157  0.49230476    -0.31000
N1942       N  0.99461181  0.22944725  0.00730994     0.13200
C1943       C  0.97553660  0.21461429  0.02871091    -0.31000
C1944       C  0.53979290  0.11964565  0.04467729    -0.31300
N1945       N  0.53691783  0.12480359  0.07579434     0.13700
H1946       H  0.56194050  0.11370333  0.03352538     0.16300
C1947       C  0.50801878  0.13644696  0.08190715    -0.31300
H1948       H  0.50141365  0.14611925  0.10451166     0.16300
H1949       H  0.96071454  0.22620611  0.04502201     0.16300
H1950       H  0.96629694  0.12278733  0.44178708     0.16400
H1951       H  0.52969293  0.21362899  0.47313310     0.16300
C1952       C  0.52912425  0.34267475  0.46593232     0.30200
C1953       C  0.98401572  0.35712700  0.01315682     0.30200
C1954       C  0.99918905  0.35902722  0.45491363    -0.06000
C1955       C  0.51597919  0.31486512  0.48570105    -0.06800
C1956       C  0.53974667  0.36314801  0.99157745    -0.06700
C1957       C  0.97569602  0.36550920  0.97903524    -0.06000
C1958       C  0.99079234  0.31877061  0.00945506    -0.06800
C1959       C  0.01795115  0.36990671  0.01587456    -0.06700
C1960       C  0.94831360  0.37014786  0.46364579    -0.32000
N1961       N  0.95246975  0.36532709  0.43254050     0.14500
C1962       C  0.98274090  0.35781270  0.42690048    -0.32100
H1963       H  0.99094384  0.34972285  0.40419069     0.16400
C1964       C  0.98200372  0.28766162  0.02038458    -0.31000
N1965       N  0.99738443  0.26368901  0.00391127     0.13200
C1966       C  0.51961144  0.28221203  0.48351238    -0.31000
C1967       C  0.53414656  0.37915682  0.04144361    -0.31300
N1968       N  0.56476756  0.37214406  0.03691564     0.13700
H1969       H  0.52424169  0.38375553  0.06447408     0.16300
C1970       C  0.56859252  0.36184401  0.00707826    -0.31300
H1971       H  0.58977850  0.35033501  0.99870007     0.16300
H1972       H  0.53425469  0.27040244  0.46708883     0.16300
H1973       H  0.92554240  0.37384502  0.47469233     0.16400
H1974       H  0.96492015  0.28311614  0.03944528     0.16300
C1975       C  0.63745909  0.01004973  0.49618643     0.30200
C1976       C  0.65333964  0.45965427  0.03758183     0.30200
C1977       C  0.62575579  0.47579141  0.48791723    -0.06000
C1978       C  0.67567490  0.00424858  0.50103171    -0.06800
C1979       C  0.62443378  0.01065093  0.02911397    -0.06700
C1980       C  0.63454144  0.45203034  0.50982081    -0.06000
C1981       C  0.68138343  0.47703589  0.02184198    -0.06800
C1982       C  0.63319095  0.98628068  0.05060862    -0.06700
C1983       C  0.63495663  0.42392985  0.49379499    -0.32000
N1984       N  0.62719690  0.42952809  0.46366854     0.14500
C1985       C  0.62250350  0.46072970  0.45915362    -0.32100
H1986       H  0.61942000  0.47156631  0.43607681     0.16400
C1987       C  0.71404830  0.47386314  0.02480981    -0.31000
N1988       N  0.72868762  0.49511206  0.00547991     0.13200
C1989       C  0.70639088  0.01484206  0.49128494    -0.31000
C1990       C  0.63587732  0.99988769  0.07990804    -0.31300
N1991       N  0.62935409  0.03085358  0.07709011     0.13700
H1992       H  0.64621964  0.98935102  0.10088866     0.16300
C1993       C  0.62321288  0.03795266  0.04659402    -0.31300
H1994       H  0.62114564  0.06188302  0.03744786     0.16300
H1995       H  0.71044433  0.03368302  0.47414857     0.16300
H1996       H  0.64392081  0.40129201  0.50172530     0.16400
H1997       H  0.72606951  0.45719426  0.04008036     0.16300
C1998       C  0.85609498  0.49067162  0.01599506     0.30200
C1999       C  0.83905593  0.03892029  0.47141602     0.30200
C2000       C  0.86911609  0.48853876  0.98212700    -0.06000
C2001       C  0.81784336  0.49384858  0.00894374    -0.06800
C2002       C  0.86357257  0.02395315  0.02226570    -0.06700
C2003       C  0.85941889  0.51392623  0.45949557    -0.06000
C2004       C  0.81153389  0.02034610  0.48646785    -0.06800
C2005       C  0.85463980  0.04735093  0.00017286    -0.06700
C2006       C  0.85809089  0.49931614  0.43050790    -0.32000
N2007       N  0.86813338  0.46928662  0.43406923     0.14500
C2008       C  0.87507972  0.46383471  0.46471895    -0.32100
H2009       H  0.87949607  0.44047958  0.47445694     0.16400
C2010       C  0.77889408  0.02297569  0.48365453    -0.31000
N2011       N  0.76194254  0.99869969  0.00156120     0.13200
C2012       C  0.78711746  0.48261042  0.01828203    -0.31000
C2013       C  0.85389572  0.07553036  0.01594576    -0.31300
N2014       N  0.86166987  0.07013257  0.04613861     0.13700
H2015       H  0.84527583  0.09820947  0.00763767     0.16300
C2016       C  0.86643094  0.03894398  0.05099214    -0.31300
H2017       H  0.86986063  0.02804474  0.07400396     0.16300
H2018       H  0.78313178  0.46431217  0.03595868     0.16300
H2019       H  0.84670363  0.50837290  0.40936499     0.16400
H2020       H  0.76656631  0.03966199  0.46856667     0.16300
C2021       C  0.98884259  0.48621192  0.14413814     0.30200
C2022       C  0.53307422  0.03206184  0.16215099     0.30200
C2023       C  0.98225164  0.01904412  0.13159513    -0.06000
C2024       C  0.99314100  0.49321154  0.18220906    -0.06800
C2025       C  0.02329078  0.47997870  0.13508294    -0.06700
C2026       C  0.00471708  0.04189343  0.14080705    -0.06000
C2027       C  0.51565694  0.01653950  0.18998692    -0.06800
C2028       C  0.54420117  0.50466676  0.14262794    -0.06700
C2029       C  0.98907162  0.07027895  0.14192249    -0.32000
N2030       N  0.95914762  0.06561048  0.13248401     0.14500
C2031       C  0.95440829  0.03484509  0.12644093    -0.32100
H2032       H  0.93125855  0.02454573  0.12269055     0.16400
C2033       C  0.51840163  0.02054552  0.22243715    -0.31000
N2034       N  0.99847018  0.99895266  0.23677426     0.13200
C2035       C  0.98243855  0.48434744  0.21321614    -0.31000
C2036       C  0.57295375  0.48958162  0.14382595    -0.31300
N2037       N  0.56830417  0.45895518  0.13675871     0.13700
H2038       H  0.59500350  0.49892572  0.15291507     0.16300
C2039       C  0.53725741  0.45355725  0.13195582    -0.31300
H2040       H  0.52691418  0.43024706  0.12940894     0.16300
H2041       H  0.96425208  0.46663332  0.21777175     0.16300
H2042       H  0.99722310  0.09205489  0.15249737     0.16400
H2043       H  0.53459217  0.03647568  0.23402039     0.16300
C2044       C  0.50395064  0.01381995  0.36494064     0.30200
C2045       C  0.95691936  0.46915381  0.34613870     0.30200
C2046       C  0.97001936  0.02014134  0.37252632    -0.06000
C2047       C  0.49981157  0.00688455  0.32667264    -0.06800
C2048       C  0.50700233  0.47974200  0.37659782    -0.06700
C2049       C  0.94669986  0.99817438  0.36384125    -0.06000
C2050       C  0.97569339  0.48345061  0.31839564    -0.06800
C2051       C  0.48371052  0.45740554  0.36780581    -0.06700
C2052       C  0.91824105  0.01387399  0.36397712    -0.32000
N2053       N  0.92361790  0.04401703  0.37211779     0.14500
C2054       C  0.95487556  0.04865079  0.37658161    -0.32100
H2055       H  0.96556760  0.07153049  0.38074866     0.16400
C2056       C  0.97328422  0.47960232  0.28589759    -0.31000
N2057       N  0.99463158  0.49863975  0.27112357     0.13200
C2058       C  0.51053372  0.01543783  0.29546869    -0.31000
C2059       C  0.49860671  0.42846474  0.36695182    -0.31300
N2060       N  0.52901448  0.43255224  0.37579197     0.13700
H2061       H  0.48923863  0.40686434  0.35698853     0.16300
C2062       C  0.53447213  0.46331786  0.38108024    -0.31300
H2063       H  0.55798707  0.47332928  0.38330173     0.16300
H2064       H  0.52903299  0.03284266  0.29075774     0.16300
H2065       H  0.89538557  0.00550436  0.35592267     0.16400
H2066       H  0.95679623  0.46422978  0.27408534     0.16300
O2067       O  0.82068110  0.39845883  0.38884516    -0.85200
O2068       O  0.84930961  0.34146991  0.37586712    -0.82200
C2069       C  0.86967362  0.32221693  0.36581055     0.98300
O2070       O  0.89682049  0.33214075  0.35680587    -0.82200
O2071       O  0.88992741  0.36959195  0.30441901    -0.84900
C2072       C  0.87897966  0.39175284  0.28774160     1.02800
O2073       O  0.87164605  0.41795155  0.29963238    -0.77600
O2074       O  0.82041609  0.40767627  0.33834340    -0.77800
C2075       C  0.80632045  0.39782223  0.36274702     1.02800
O2076       O  0.87716848  0.41824562  0.41828878    -0.85100
O2077       O  0.90152942  0.35947089  0.41346018    -0.82200
C2078       C  0.92935187  0.36879740  0.40870893     0.98300
O2079       O  0.93709383  0.38125501  0.38290891    -0.82200
O2080       O  0.93464570  0.41716511  0.32983934    -0.84800
C2081       C  0.92987909  0.44498378  0.34030855     1.02800
O2082       O  0.90238389  0.45263352  0.34864420    -0.77700
O2083       O  0.85128789  0.44941880  0.38537794    -0.77800
C2084       C  0.86583131  0.44489251  0.41136520     1.02800
Cr2085     Cr  0.86308644  0.38041270  0.39660633     1.93700
Cr2086     Cr  0.91225154  0.37629197  0.34438594     1.93200
Cr2087     Cr  0.86232281  0.42947601  0.34388568     1.39100
O2088       O  0.87931674  0.39521381  0.36118147    -1.22900
O2089       O  0.86724197  0.14756380  0.34409139    -0.85200
O2090       O  0.87930238  0.17678710  0.39983107    -0.82200
C2091       C  0.85292870  0.19075993  0.39950695     0.98300
O2092       O  0.82883838  0.17615192  0.40978943    -0.82200
O2093       O  0.79114828  0.12345477  0.42092913    -0.84900
C2094       C  0.77864592  0.11642158  0.39483280     1.02800
O2095       O  0.79512232  0.10660454  0.37225661    -0.77600
O2096       O  0.84830983  0.09982013  0.33577243    -0.77800
C2097       C  0.85783463  0.12675252  0.32532181     1.02800
O2098       O  0.90450823  0.09477213  0.36393490    -0.85100
O2099       O  0.90931182  0.12068257  0.42125320    -0.82200
C2100       C  0.90287910  0.13287949  0.44733322     0.98300
O2101       O  0.87675499  0.14684808  0.45161718    -0.82200
O2102       O  0.84149139  0.09382878  0.45489793    -0.84800
C2103       C  0.83246403  0.06635326  0.44756394     1.02800
O2104       O  0.82042703  0.06205488  0.42023632    -0.77700
O2105       O  0.87351767  0.05947451  0.38573623    -0.77800
C2106       C  0.89967193  0.06713348  0.37414073     1.02800
Cr2107     Cr  0.88758364  0.13395715  0.38325643     1.93700
Cr2108     Cr  0.83533304  0.13421255  0.43200361     1.93200
Cr2109     Cr  0.83520335  0.08438255  0.37952541     1.39100
O2110       O  0.85220644  0.11755788  0.39798313    -1.22900
O2111       O  0.55845016  0.14716115  0.42070586    -0.85200
O2112       O  0.56906997  0.11344503  0.36821329    -0.82200
C2113       C  0.58039824  0.09205977  0.35129346     0.98300
O2114       O  0.58055978  0.06389379  0.36117350    -0.82200
O2115       O  0.63340565  0.06901620  0.39429245    -0.84900
C2116       C  0.65141183  0.08203004  0.41372745     1.02800
O2117       O  0.64253363  0.08710532  0.44158981    -0.77600
O2118       O  0.60770832  0.13919250  0.43220015    -0.77800
C2119       C  0.58640111  0.15666085  0.42091156     1.02800
O2120       O  0.51958794  0.10527419  0.44891758    -0.85100
O2121       O  0.52297105  0.06650754  0.38579400    -0.82200
C2122       C  0.52765522  0.03653387  0.38511186     0.98300
O2123       O  0.55000385  0.02578314  0.40344018    -0.82200
O2124       O  0.61336192  0.02759282  0.44376614    -0.84800
C2125       C  0.61754943  0.03428445  0.47322154     1.02800
O2126       O  0.60254659  0.05883718  0.48362725    -0.77700
O2127       O  0.56045498  0.12010594  0.47809139    -0.77800
C2128       C  0.53032469  0.12144801  0.47268264     1.02800
Cr2129     Cr  0.54497144  0.10484899  0.40767723     1.93700
Cr2130     Cr  0.59259125  0.04893872  0.40387471     1.93200
Cr2131     Cr  0.60010685  0.09962347  0.45663874     1.39100
O2132       O  0.57784408  0.08294330  0.42439935    -1.22900
O2133       O  0.65722403  0.37519829  0.36134086    -0.85200
O2134       O  0.60225933  0.39037478  0.33101974    -0.82200
C2135       C  0.60304333  0.36469400  0.31658053     0.98300
O2136       O  0.59292036  0.33983525  0.33028606    -0.82200
O2137       O  0.58157149  0.29917873  0.38098729    -0.84900
C2138       C  0.60690453  0.28541223  0.38907543     1.02800
O2139       O  0.62960087  0.30089146  0.40037665    -0.77600
O2140       O  0.66646291  0.35387418  0.40818275    -0.77800
C2141       C  0.67631794  0.36377180  0.38134394     1.02800
O2142       O  0.63785051  0.41116564  0.41361613    -0.85100
O2143       O  0.57975312  0.41682667  0.38724808    -0.82200
C2144       C  0.55362484  0.41007145  0.37459587     0.98300
O2145       O  0.54984204  0.38447132  0.35979289    -0.82200
O2146       O  0.54576450  0.34692798  0.41131661    -0.84800
C2147       C  0.55316586  0.33736807  0.43875561     1.02800
O2148       O  0.58085720  0.32619844  0.44355610    -0.77700
O2149       O  0.61600464  0.37902330  0.44765883    -0.77800
C2150       C  0.62683938  0.40572678  0.44056122     1.02800
Cr2151     Cr  0.61829489  0.39575654  0.37435154     1.93700
Cr2152     Cr  0.56983816  0.34326527  0.37150360     1.93200
Cr2153     Cr  0.62211005  0.34117652  0.42244212     1.39100
O2154       O  0.60361681  0.35960753  0.38945138    -1.22900
O2155       O  0.60688543  0.32479946  0.11092609    -0.85200
O2156       O  0.62056132  0.35396204  0.16614749    -0.82200
C2157       C  0.63253277  0.37371824  0.18468549     0.98300
O2158       O  0.64298186  0.40040633  0.17436288    -0.82200
O2159       O  0.69585068  0.39404385  0.13809238    -0.84900
C2160       C  0.71171023  0.38402590  0.11537413     1.02800
O2161       O  0.69842857  0.37448147  0.09035834    -0.77600
O2162       O  0.65760535  0.32302412  0.10230898    -0.77800
C2163       C  0.63252990  0.30959416  0.11207798     1.02800
O2164       O  0.58029469  0.38245487  0.08807984    -0.85100
O2165       O  0.58626699  0.40815642  0.14644148    -0.82200
C2166       C  0.59205547  0.43553571  0.13617123     0.98300
O2167       O  0.61838708  0.44212367  0.12456044    -0.82200
O2168       O  0.67079118  0.43703163  0.08928000    -0.84800
C2169       C  0.65920191  0.43232228  0.06180620     1.02800
O2170       O  0.64979357  0.40486226  0.05480770    -0.77700
O2171       O  0.61208347  0.35385913  0.05910555    -0.77800
C2172       C  0.58690910  0.36979273  0.06213416     1.02800
Cr2173     Cr  0.60105956  0.36835335  0.12685453     1.93700
Cr2174     Cr  0.65580146  0.41590131  0.13054077     1.93200
Cr2175     Cr  0.65382836  0.36486620  0.07900859     1.39100
O2176       O  0.63749297  0.38295101  0.11247675    -1.22900
O2177       O  0.90897577  0.35273595  0.06419434    -0.85200
O2178       O  0.85839164  0.38735165  0.07461066    -0.82200
C2179       C  0.84102586  0.40728294  0.08746288     0.98300
O2180       O  0.85080938  0.43518014  0.09138714    -0.82200
O2181       O  0.88675073  0.42463536  0.14176254    -0.84900
C2182       C  0.90683994  0.41148446  0.15930655     1.02800
O2183       O  0.93485869  0.40854413  0.15020964    -0.77600
O2184       O  0.92353763  0.35930934  0.11303925    -0.77800
C2185       C  0.91171103  0.34232490  0.09181138     1.02800
O2186       O  0.93903317  0.39540255  0.02685268    -0.85100
O2187       O  0.87734342  0.43688068  0.03197179    -0.82200
C2188       C  0.87581583  0.46647698  0.03874139     0.98300
O2189       O  0.89273426  0.47593218  0.06253214    -0.82200
O2190       O  0.93485943  0.46912804  0.12367636    -0.84800
C2191       C  0.96472564  0.46279358  0.12522813     1.02800
O2192       O  0.97452993  0.43904929  0.10872232    -0.77700
O2193       O  0.96830064  0.37826439  0.06662693    -0.77800
C2194       C  0.96189515  0.37737928  0.03686901     1.02800
Cr2195     Cr  0.89790882  0.39636462  0.05194586     1.93700
Cr2196     Cr  0.89440795  0.44892360  0.10294701     1.93200
Cr2197     Cr  0.94789348  0.39842280  0.10651325     1.39100
O2198       O  0.91498708  0.41618830  0.08563802    -1.22900
O2199       O  0.61331396  0.16480571  0.11972219    -0.85200
O2200       O  0.66521954  0.13080897  0.13434399    -0.82200
C2201       C  0.68346173  0.10984688  0.14506481     0.98300
O2202       O  0.67279289  0.08321268  0.15478993    -0.82200
O2203       O  0.63529899  0.09164668  0.20708196    -0.84900
C2204       C  0.61278946  0.10314194  0.22241506     1.02800
O2205       O  0.58786390  0.11276622  0.20889580    -0.77600
O2206       O  0.60094246  0.16523039  0.16999418    -0.77800
C2207       C  0.61075477  0.17953207  0.14543536     1.02800
O2208       O  0.58730641  0.10980917  0.09049425    -0.85100
O2209       O  0.64346797  0.07980265  0.09692687    -0.82200
C2210       C  0.63146458  0.05300267  0.10189872     0.98300
O2211       O  0.62067978  0.04584228  0.12847509    -0.82200
O2212       O  0.58521166  0.05168935  0.18070526    -0.84800
C2213       C  0.55832557  0.05778863  0.16831628     1.02800
O2214       O  0.55262047  0.08549245  0.15870879    -0.77700
O2215       O  0.55960873  0.13806707  0.12356508    -0.77800
C2216       C  0.56216999  0.12377325  0.09763557     1.02800
Cr2217     Cr  0.62628456  0.12018928  0.11293543     1.93700
Cr2218     Cr  0.62755551  0.07075206  0.16657624     1.93200
Cr2219     Cr  0.57768189  0.12414327  0.16468924     1.39100
O2220       O  0.61088615  0.10517302  0.14862483    -1.22900
O2221       O  0.88779761  0.10989278  0.17802047    -0.85200
O2222       O  0.83393777  0.12844354  0.14716016    -0.82200
C2223       C  0.81524565  0.13806035  0.12591729     0.98300
O2224       O  0.82581832  0.14676819  0.09903728    -0.82200
O2225       O  0.86409321  0.19814111  0.10845929    -0.84900
C2226       C  0.88670325  0.21382811  0.11980222     1.02800
O2227       O  0.91209858  0.20079966  0.12861030    -0.77600
O2228       O  0.89912522  0.15999807  0.17908456    -0.77800
C2229       C  0.88866807  0.13531147  0.19287460     1.02800
O2230       O  0.90846546  0.08185254  0.12228347    -0.85100
O2231       O  0.85137326  0.09025693  0.09550262    -0.82200
C2232       C  0.86333496  0.09430961  0.06871974     0.98300
O2233       O  0.87618871  0.12007438  0.06133767    -0.82200
O2234       O  0.91201205  0.17281319  0.06546870    -0.84800
C2235       C  0.93911918  0.16054009  0.07022784     1.02800
O2236       O  0.94636197  0.15130252  0.09784193    -0.77700
O2237       O  0.93977384  0.11376607  0.14894006    -0.77800
C2238       C  0.93491273  0.08819012  0.13429364     1.02800
Cr2239     Cr  0.87142520  0.10519539  0.13478922     1.93700
Cr2240     Cr  0.87060206  0.15845482  0.08595981     1.93200
Cr2241     Cr  0.92207820  0.15586985  0.13767484     1.39100
O2242       O  0.88804633  0.14027511  0.11939252    -1.22900
C2243       C  0.72617524  0.13474971  0.11519868    -0.12100
C2244       C  0.71740398  0.11657883  0.14178948     0.04900
C2245       C  0.74075222  0.10740032  0.16376047    -0.07400
C2246       C  0.77203529  0.11673229  0.15881178    -0.08100
C2247       C  0.78103183  0.13423919  0.13173615    -0.02700
C2248       C  0.75743596  0.14359923  0.10990709     0.04200
N2249       N  0.76413075  0.16175984  0.08204543     0.66700
H2250       H  0.70863062  0.14187346  0.09786891     0.15600
H2251       H  0.78940884  0.10927556  0.17601562     0.15300
N2252       N  0.73366662  0.08918561  0.19145572     0.74400
O2253       O  0.76619351  0.14735908  0.05609484    -0.39100
O2254       O  0.75608364  0.19052695  0.08152188    -0.39000
O2255       O  0.74145061  0.06034953  0.19193955    -0.39700
O2256       O  0.73141179  0.10350144  0.21743077    -0.39800
C2257       C  0.87963191  0.25903616  0.08573468    -0.12100
C2258       C  0.88613905  0.24791019  0.11627029     0.04900
C2259       C  0.89831786  0.26855276  0.13922041    -0.07400
C2260       C  0.90496226  0.29964881  0.13075662    -0.08100
C2261       C  0.90134026  0.31012478  0.09941947    -0.02700
C2262       C  0.88786424  0.28956923  0.07674125     0.04200
N2263       N  0.88403050  0.29798420  0.04410187     0.66700
H2264       H  0.87091495  0.24307556  0.06779681     0.15600
H2265       H  0.91401828  0.31517695  0.14854536     0.15300
N2266       N  0.90457438  0.25866416  0.17102627     0.74400
O2267       O  0.90482357  0.28898486  0.02481360    -0.39100
O2268       O  0.85638637  0.30294259  0.03377529    -0.39000
O2269       O  0.93292829  0.25326276  0.17898009    -0.39700
O2270       O  0.88518476  0.26659279  0.19217999    -0.39800
C2271       C  0.64721226  0.22154966  0.12817207    -0.12100
C2272       C  0.61947511  0.21339156  0.14468491     0.04900
C2273       C  0.59867915  0.23762185  0.15372713    -0.07400
C2274       C  0.60462533  0.26874336  0.14380367    -0.08100
C2275       C  0.63114858  0.27671014  0.12507335    -0.02700
C2276       C  0.65340990  0.25278977  0.11860052     0.04200
N2277       N  0.68167398  0.25890685  0.10116891     0.66700
H2278       H  0.66356500  0.20320793  0.12130436     0.15600
H2279       H  0.58749745  0.28658323  0.14985925     0.15300
N2280       N  0.57017967  0.23119968  0.17077399     0.74400
O2281       O  0.70742398  0.26095398  0.11632443    -0.39100
O2282       O  0.68254046  0.25083241  0.07250644    -0.39000
O2283       O  0.56989380  0.23640758  0.20012952    -0.39700
O2284       O  0.54420985  0.23140403  0.15583743    -0.39800
C2285       C  0.76280786  0.36407898  0.09833028    -0.12100
C2286       C  0.74618831  0.38632814  0.11583262     0.04900
C2287       C  0.76210949  0.41341132  0.12722588    -0.07400
C2288       C  0.79323945  0.41916311  0.11811806    -0.08100
C2289       C  0.80908801  0.39829588  0.09810396    -0.02700
C2290       C  0.79402613  0.36960970  0.08952562     0.04200
N2291       N  0.80926726  0.34583589  0.07140293     0.66700
H2292       H  0.75100797  0.34293072  0.09007296     0.15600
H2293       H  0.80463471  0.44059059  0.12614017     0.15300
N2294       N  0.74683697  0.43665088  0.14612643     0.74400
O2295       O  0.81960899  0.32175838  0.08596603    -0.39100
O2296       O  0.80162598  0.34320300  0.04263501    -0.39000
O2297       O  0.75367894  0.43757963  0.17520727    -0.39700
O2298       O  0.73692639  0.46157524  0.13273727    -0.39800
C2299       C  0.60848491  0.33914309  0.26459288    -0.12100
C2300       C  0.61511436  0.36494124  0.28388850     0.04900
C2301       C  0.63252289  0.39094282  0.27106837    -0.07400
C2302       C  0.64028029  0.39154657  0.23917081    -0.08100
C2303       C  0.63070388  0.36732903  0.21907541    -0.02700
C2304       C  0.61586377  0.34004374  0.23242994     0.04200
N2305       N  0.60681457  0.31329445  0.21407267     0.66700
H2306       H  0.59620430  0.31870905  0.27405711     0.15600
H2307       H  0.65224332  0.41225698  0.22989857     0.15300
N2308       N  0.64188259  0.41783089  0.28921007     0.74400
O2309       O  0.62405426  0.28894770  0.21560553    -0.39100
O2310       O  0.57784662  0.30991995  0.20727875    -0.39000
O2311       O  0.67112805  0.42232722  0.29366299    -0.39700
O2312       O  0.62391418  0.44166912  0.28895128    -0.39800
C2313       C  0.59880509  0.12917306  0.27131424    -0.12100
C2314       C  0.61342958  0.10353136  0.25677759     0.04900
C2315       C  0.62098821  0.07631990  0.27469406    -0.07400
C2316       C  0.61168853  0.07452967  0.30610317    -0.08100
C2317       C  0.59358913  0.09864004  0.31976186    -0.02700
C2318       C  0.58825124  0.12683319  0.30236603     0.04200
N2319       N  0.56964910  0.15221222  0.31404794     0.66700
H2320       H  0.59284766  0.15007019  0.25758811     0.15600
H2321       H  0.61684313  0.05297755  0.31904897     0.15300
N2322       N  0.63401554  0.04854059  0.26081876     0.74400
O2323       O  0.54082592  0.15327223  0.30596368    -0.39100
O2324       O  0.58366597  0.17779121  0.32056895    -0.39000
O2325       O  0.66254914  0.04178890  0.26678481    -0.39700
O2326       O  0.61529974  0.02644116  0.25331730    -0.39800
C2327       C  0.57815945  0.23625055  0.38079362    -0.12100
C2328       C  0.60695676  0.25054152  0.38906321     0.04900
C2329       C  0.63107119  0.23165335  0.40285296    -0.07400
C2330       C  0.62428814  0.20042026  0.41164243    -0.08100
C2331       C  0.59364497  0.18810059  0.40789100    -0.02700
C2332       C  0.57064815  0.20612004  0.39124693     0.04200
N2333       N  0.53858799  0.19589640  0.38676433     0.66700
H2334       H  0.55962632  0.24954181  0.36902996     0.15600
H2335       H  0.64265022  0.18644481  0.42281451     0.15300
N2336       N  0.66230215  0.24334597  0.40867616     0.74400
O2337       O  0.52977777  0.18827521  0.35933097    -0.39100
O2338       O  0.51789154  0.20576476  0.40573549    -0.39000
O2339       O  0.67006034  0.24977497  0.43676986    -0.39700
O2340       O  0.68384086  0.23607944  0.38943145    -0.39800
C2341       C  0.85356095  0.10744258  0.27098427    -0.12100
C2342       C  0.86169454  0.13227183  0.29092909     0.04900
C2343       C  0.87664409  0.15955833  0.27765863    -0.07400
C2344       C  0.88431951  0.16048172  0.24548909    -0.08100
C2345       C  0.87791706  0.13465639  0.22610505    -0.02700
C2346       C  0.86157126  0.10808266  0.23917841     0.04200
N2347       N  0.85318685  0.08079572  0.22119111     0.66700
H2348       H  0.84200441  0.08648273  0.28023908     0.15600
H2349       H  0.89621794  0.18113068  0.23597792     0.15300
N2350       N  0.88515393  0.18642741  0.29610650     0.74400
O2351       O  0.87113498  0.05696728  0.22280544    -0.39100
O2352       O  0.82428856  0.07643604  0.21471239    -0.39000
O2353       O  0.91383741  0.18976942  0.30404648    -0.39700
O2354       O  0.86793105  0.21074609  0.29404070    -0.39800
C2355       C  0.69412792  0.12017073  0.41941637    -0.12100
C2356       C  0.68260185  0.09330477  0.40403394     0.04900
C2357       C  0.70080800  0.07923388  0.38002066    -0.07400
C2358       C  0.73136215  0.09029381  0.37440051    -0.08100
C2359       C  0.74421134  0.11462034  0.39278189    -0.02700
C2360       C  0.72464166  0.13097976  0.41405483     0.04200
N2361       N  0.73528028  0.15797704  0.43126948     0.66700
H2362       H  0.67971046  0.13247819  0.43641605     0.15600
H2363       H  0.74592738  0.07768904  0.35776076     0.15300
N2364       N  0.69012441  0.05237147  0.36267452     0.74400
O2365       O  0.72601750  0.18493825  0.42210515    -0.39100
O2366       O  0.74289493  0.15428000  0.45997351    -0.39000
O2367       O  0.68184225  0.05657709  0.33423562    -0.39700
O2368       O  0.69994314  0.02535391  0.37105760    -0.39800
C2369       C  0.90641192  0.37394696  0.24087689    -0.12100
C2370       C  0.87988755  0.38893437  0.25351066     0.04900
C2371       C  0.85952529  0.40631324  0.23352821    -0.07400
C2372       C  0.86827714  0.41193366  0.20240494    -0.08100
C2373       C  0.89718429  0.40065133  0.19083097    -0.02700
C2374       C  0.91540298  0.37968086  0.20978312     0.04200
N2375       N  0.94334586  0.36435401  0.19872500     0.66700
H2376       H  0.92189618  0.35993542  0.25581668     0.15600
H2377       H  0.85288238  0.42638148  0.18781239     0.15300
N2378       N  0.82993649  0.41854118  0.24410260     0.74400
O2379       O  0.96981969  0.37703568  0.20457501    -0.39100
O2380       O  0.94237089  0.33473255  0.19520013    -0.39000
O2381       O  0.82777439  0.44788077  0.24901434    -0.39700
O2382       O  0.80509398  0.40333576  0.23720109    -0.39800
C2383       C  0.76588084  0.36556781  0.38887299    -0.12100
C2384       C  0.77379036  0.38500390  0.36288742     0.04900
C2385       C  0.75023773  0.39201839  0.34024750    -0.07400
C2386       C  0.71917983  0.38181488  0.34563601    -0.08100
C2387       C  0.71054963  0.36596510  0.37383578    -0.02700
C2388       C  0.73476137  0.35659453  0.39491581     0.04200
N2389       N  0.72879169  0.33883685  0.42314709     0.66700
H2390       H  0.78380023  0.35825756  0.40571332     0.15600
H2391       H  0.70162229  0.38796994  0.32849282     0.15300
N2392       N  0.75631096  0.41078781  0.31263896     0.74400
O2393       O  0.73476778  0.30957472  0.42303312    -0.39100
O2394       O  0.72980164  0.35322325  0.44918582    -0.39000
O2395       O  0.75586830  0.39723128  0.28615334    -0.39700
O2396       O  0.75025225  0.44001706  0.31353585    -0.39800
C2397       C  0.87899777  0.23285185  0.36879231    -0.12100
C2398       C  0.85260821  0.22377603  0.38700411     0.04900
C2399       C  0.82920792  0.24673844  0.39314924    -0.07400
C2400       C  0.83439331  0.27830258  0.38382853    -0.08100
C2401       C  0.86254932  0.28778113  0.36846100    -0.02700
C2402       C  0.88430322  0.26414493  0.35971056     0.04200
N2403       N  0.91266079  0.27100760  0.34260761     0.66700
H2404       H  0.89668073  0.21566909  0.36230528     0.15600
H2405       H  0.81675898  0.29562449  0.39004138     0.15300
N2406       N  0.80053616  0.23931588  0.40946162     0.74400
O2407       O  0.93853808  0.27162694  0.35768983    -0.39100
O2408       O  0.91325456  0.26481102  0.31345799    -0.39600
O2409       O  0.79788485  0.24797542  0.43783321    -0.39700
O2410       O  0.77562864  0.23569423  0.39323205    -0.39800
C2411       C  0.96579119  0.15762427  0.54343913     0.30200
C2412       C  0.50466594  0.13866753  0.99657837     0.30200
C2413       C  0.94850192  0.13511715  0.01547181    -0.06000
C2414       C  0.98161849  0.18562140  0.52613950    -0.06800
C2415       C  0.49301487  0.13792928  0.55430843    -0.06700
C2416       C  0.97009960  0.12564615  0.99184564    -0.06000
C2417       C  0.49984041  0.17714727  0.00164149    -0.06800
C2418       C  0.51394650  0.12843649  0.53047883    -0.06700
C2419       C  0.95317842  0.12229830  0.96463846    -0.32000
N2420       N  0.92273309  0.12921213  0.97033118     0.14500
C2421       C  0.91942767  0.13786490  0.00073842    -0.32100
H2422       H  0.89835581  0.14864720  0.01026237     0.16400
C2423       C  0.50915551  0.20809502  0.99075016    -0.31000
N2424       N  0.99796365  0.23308096  0.50799520     0.13200
C2425       C  0.97868362  0.21827302  0.52928623    -0.31000
C2426       C  0.54198167  0.12046480  0.54498165    -0.31300
N2427       N  0.53890646  0.12541104  0.57610957     0.13700
H2428       H  0.56432665  0.11517025  0.53384667     0.16300
C2429       C  0.50978636  0.13657208  0.58214267    -0.31300
H2430       H  0.50301616  0.14626717  0.60469175     0.16300
H2431       H  0.96381801  0.22988826  0.54552703     0.16300
H2432       H  0.96281286  0.11929324  0.94116401     0.16400
H2433       H  0.52641899  0.21237429  0.97164088     0.16300
C2434       C  0.52704699  0.34154055  0.96561939     0.30200
C2435       C  0.98628620  0.36049420  0.51243539     0.30200
C2436       C  0.99754964  0.35701337  0.95574587    -0.06000
C2437       C  0.51293955  0.31375922  0.98462353    -0.06800
C2438       C  0.54125996  0.36524543  0.49130417    -0.06700
C2439       C  0.97738255  0.36763739  0.47824327    -0.06000
C2440       C  0.99407719  0.32230279  0.50963122    -0.06800
C2441       C  0.01979959  0.37454639  0.51418819    -0.06700
C2442       C  0.94674213  0.36857670  0.96414877    -0.32000
N2443       N  0.95109306  0.36421704  0.93297717     0.14500
C2444       C  0.98129725  0.35648208  0.92756411    -0.32100
H2445       H  0.98939993  0.34824914  0.90486898     0.16400
C2446       C  0.98523589  0.29130091  0.52068335    -0.31000
N2447       N  0.00086838  0.26728571  0.50457172     0.13200
C2448       C  0.51617762  0.28111660  0.98201626    -0.31000
C2449       C  0.53567874  0.38194608  0.54093966    -0.31300
N2450       N  0.56643548  0.37559702  0.53626128     0.13700
H2451       H  0.52582732  0.38643477  0.56403303     0.16300
C2452       C  0.57023776  0.36499076  0.50654068    -0.31300
H2453       H  0.59150168  0.35356625  0.49828068     0.16300
H2454       H  0.53082703  0.26931518  0.96552081     0.16300
H2455       H  0.92387484  0.37196604  0.97508992     0.16400
H2456       H  0.96757963  0.28684065  0.53932226     0.16300
C2457       C  0.63453518  0.00710455  0.99443860     0.30200
C2458       C  0.65437378  0.46216754  0.53829765     0.30200
C2459       C  0.62495210  0.47328042  0.98713763    -0.06000
C2460       C  0.67281817  0.00140218  0.99928808    -0.06800
C2461       C  0.62754268  0.01388006  0.53088276    -0.06700
C2462       C  0.63357080  0.44953098  0.00912126    -0.06000
C2463       C  0.68227342  0.47974904  0.52251090    -0.06800
C2464       C  0.63612907  0.98949564  0.55248160    -0.06700
C2465       C  0.63385573  0.42137093  0.99325363    -0.32000
N2466       N  0.62611603  0.42697148  0.96312864     0.14500
C2467       C  0.62165362  0.45817264  0.95845937    -0.32100
H2468       H  0.61862474  0.46895293  0.93534161     0.16400
C2469       C  0.71494500  0.47677604  0.52544674    -0.31000
N2470       N  0.72946224  0.49812770  0.50614900     0.13200
C2471       C  0.70361632  0.01200281  0.98963165    -0.31000
C2472       C  0.63892161  0.00309615  0.58173588    -0.31300
N2473       N  0.63288640  0.03411526  0.57878075     0.13700
H2474       H  0.64868435  0.99237616  0.60291201     0.16300
C2475       C  0.62683980  0.04126604  0.54826385    -0.31300
H2476       H  0.62488822  0.06517719  0.53905435     0.16300
H2477       H  0.70771398  0.03091610  0.97256655     0.16300
H2478       H  0.64265716  0.39872226  0.00130994     0.16400
H2479       H  0.72707243  0.46012806  0.54069183     0.16300
C2480       C  0.85696368  0.49293780  0.51571450     0.30200
C2481       C  0.83650150  0.03657283  0.97074910     0.30200
C2482       C  0.86950742  0.49070081  0.48166685    -0.06000
C2483       C  0.81864918  0.49653203  0.50905694    -0.06800
C2484       C  0.86669471  0.02654682  0.52273068    -0.06700
C2485       C  0.85905199  0.51170540  0.95988389    -0.06000
C2486       C  0.80894531  0.01758284  0.98529049    -0.06800
C2487       C  0.85771485  0.04984943  0.50053324    -0.06700
C2488       C  0.85768724  0.49693196  0.93098539    -0.32000
N2489       N  0.86762627  0.46688354  0.93463531     0.14500
C2490       C  0.87472188  0.46158955  0.96526735    -0.32100
H2491       H  0.87904038  0.43827624  0.97505955     0.16400
C2492       C  0.77629130  0.02011028  0.98224210    -0.31000
N2493       N  0.76465790  0.00167522  0.50317342     0.13200
C2494       C  0.78792015  0.48550978  0.51863521    -0.31000
C2495       C  0.85667523  0.07809220  0.51631664    -0.31300
N2496       N  0.86419440  0.07288109  0.54658923     0.13700
H2497       H  0.84771443  0.10062626  0.50805067     0.16300
C2498       C  0.86925795  0.04171640  0.55144638    -0.31300
H2499       H  0.87244732  0.03083501  0.57451764     0.16300
H2500       H  0.78396446  0.46715542  0.53629001     0.16300
H2501       H  0.84609433  0.50587591  0.90986986     0.16400
H2502       H  0.76401904  0.03690345  0.96720369     0.16300
C2503       C  0.98884351  0.48831283  0.64494205     0.30200
C2504       C  0.53391951  0.03313230  0.66319230     0.30200
C2505       C  0.98504908  0.02073940  0.62971032    -0.06000
C2506       C  0.99209666  0.49545024  0.68302611    -0.06800
C2507       C  0.02343974  0.48149179  0.63722782    -0.06700
C2508       C  0.00727884  0.04369784  0.63931624    -0.06000
C2509       C  0.51596098  0.01757803  0.69092089    -0.06800
C2510       C  0.54542763  0.50433742  0.64548698    -0.06700
C2511       C  0.99202985  0.07217465  0.63835045    -0.32000
N2512       N  0.96245311  0.06739163  0.62790199     0.14500
C2513       C  0.95771921  0.03654515  0.62242076    -0.32100
H2514       H  0.93459288  0.02627867  0.61840146     0.16400
C2515       C  0.51809990  0.02104400  0.72353384    -0.31000
N2516       N  0.99724127  0.00017059  0.73598586     0.13200
C2517       C  0.98134209  0.48562856  0.71371126    -0.31000
C2518       C  0.57424775  0.48958218  0.64686461    -0.31300
N2519       N  0.56966673  0.45888963  0.63992855     0.13700
H2520       H  0.59640877  0.49937885  0.65524643     0.16300
C2521       C  0.53866899  0.45318574  0.63503404    -0.31300
H2522       H  0.52845729  0.42988687  0.63195879     0.16300
H2523       H  0.96361636  0.46731158  0.71772886     0.16300
H2524       H  0.99972705  0.09405339  0.64906777     0.16400
H2525       H  0.53397326  0.03690738  0.73567885     0.16300
C2526       C  0.50099596  0.01130756  0.86514137     0.30200
C2527       C  0.95567760  0.46674899  0.84659681     0.30200
C2528       C  0.96762896  0.01748229  0.87102345    -0.06000
C2529       C  0.49751341  0.00481223  0.82694614    -0.06800
C2530       C  0.50439453  0.47754325  0.87766031    -0.06700
C2531       C  0.94419939  0.99580911  0.86180338    -0.06000
C2532       C  0.97453778  0.48142167  0.81897298    -0.06800
C2533       C  0.48113175  0.45540744  0.86823844    -0.06700
C2534       C  0.91589210  0.01178393  0.86171717    -0.32000
N2535       N  0.92139289  0.04176274  0.87038936     0.14500
C2536       C  0.95264324  0.04607752  0.87527424    -0.32100
H2537       H  0.96342899  0.06880396  0.88002101     0.16400
C2538       C  0.97207215  0.47857574  0.78630907    -0.31000
N2539       N  0.99338930  0.49812761  0.77202562     0.13200
C2540       C  0.50909237  0.01391948  0.79632009    -0.31000
C2541       C  0.49596019  0.42640789  0.86782515    -0.31300
N2542       N  0.52613974  0.43029445  0.87762201     0.13700
H2543       H  0.48692704  0.40498729  0.85717107     0.16300
C2544       C  0.53156134  0.46096238  0.88323196    -0.31300
H2545       H  0.55508825  0.47076215  0.88593590     0.16300
H2546       H  0.52777077  0.03129246  0.79238591     0.16300
H2547       H  0.89307919  0.00368987  0.85331710     0.16400
H2548       H  0.95548700  0.46367056  0.77407129     0.16300
O2549       O  0.81909886  0.39562523  0.88973656    -0.85200
O2550       O  0.84813655  0.33927971  0.87587872    -0.82200
C2551       C  0.86829592  0.31997465  0.86556388     0.98300
O2552       O  0.89543314  0.32978284  0.85637430    -0.82200
O2553       O  0.88851002  0.36807983  0.80402675    -0.84900
C2554       C  0.87792297  0.39069603  0.78764003     1.02800
O2555       O  0.86974212  0.41635887  0.80011601    -0.77600
O2556       O  0.81859076  0.40546452  0.83933232    -0.77800
C2557       C  0.80451496  0.39541116  0.86371997     1.02800
O2558       O  0.87592324  0.41560704  0.91899516    -0.85100
O2559       O  0.90040949  0.35705942  0.91352959    -0.82200
C2560       C  0.92804993  0.36692228  0.90890986     0.98300
O2561       O  0.93574986  0.37898784  0.88290026    -0.82200
O2562       O  0.93310780  0.41508352  0.83000079    -0.84800
C2563       C  0.92841987  0.44280573  0.84067104     1.02800
O2564       O  0.90092574  0.45041749  0.84922665    -0.77700
O2565       O  0.84988282  0.44684675  0.88634191    -0.77800
C2566       C  0.86475809  0.44233192  0.91213170     1.02800
Cr2567     Cr  0.86183471  0.37791654  0.89697279     1.93700
Cr2568     Cr  0.91076506  0.37417848  0.84430771     1.93200
Cr2569     Cr  0.86065807  0.42729359  0.84461728     1.39100
O2570       O  0.87782796  0.39294028  0.86147760    -1.22900
O2571       O  0.86354522  0.14466233  0.84208634    -0.85200
O2572       O  0.87631142  0.17459338  0.89785734    -0.82200
C2573       C  0.84996161  0.18851058  0.89804324     0.98300
O2574       O  0.82592958  0.17380734  0.90840088    -0.82200
O2575       O  0.78846462  0.12075422  0.91973021    -0.84900
C2576       C  0.77600652  0.11281952  0.89388109     1.02800
O2577       O  0.79250828  0.10321644  0.87122857    -0.77600
O2578       O  0.84579123  0.09628246  0.83448552    -0.77800
C2579       C  0.85507129  0.12309360  0.82362050     1.02800
O2580       O  0.90203157  0.09253932  0.86262399    -0.85100
O2581       O  0.90652330  0.11911782  0.91975500    -0.82200
C2582       C  0.89980892  0.13093358  0.94599654     0.98300
O2583       O  0.87374374  0.14495312  0.95019572    -0.82200
O2584       O  0.83887257  0.09162388  0.95411084    -0.84800
C2585       C  0.83002473  0.06403695  0.94685711     1.02800
O2586       O  0.81822553  0.05952559  0.91947280    -0.77700
O2587       O  0.87149498  0.05713123  0.88490898    -0.77800
C2588       C  0.89746366  0.06488031  0.87292308     1.02800
Cr2589     Cr  0.88457075  0.13174904  0.88156095     1.93700
Cr2590     Cr  0.83253563  0.13189878  0.93072646     1.93200
Cr2591     Cr  0.83282128  0.08153442  0.87856387     1.39100
O2592       O  0.84947677  0.11511488  0.89669924    -1.22900
O2593       O  0.55431518  0.14480317  0.92089769    -0.85200
O2594       O  0.56449602  0.11186163  0.86840175    -0.82200
C2595       C  0.57655018  0.09126014  0.85111127     0.98300
O2596       O  0.57750552  0.06279894  0.86021181    -0.82200
O2597       O  0.63038582  0.06710148  0.89380552    -0.84900
C2598       C  0.64851512  0.07915255  0.91373617     1.02800
O2599       O  0.63931349  0.08504528  0.94129501    -0.77600
O2600       O  0.60373989  0.13711053  0.93243206    -0.77800
C2601       C  0.58213110  0.15465005  0.92172738     1.02800
O2602       O  0.51637593  0.10240604  0.94933059    -0.85100
O2603       O  0.51965121  0.06393035  0.88599386    -0.82200
C2604       C  0.52472643  0.03404788  0.88492809     0.98300
O2605       O  0.54747788  0.02336857  0.90260311    -0.82200
O2606       O  0.61042362  0.02514264  0.94229913    -0.84800
C2607       C  0.61454669  0.03151057  0.97180754     1.02800
O2608       O  0.59941374  0.05586655  0.98254639    -0.77700
O2609       O  0.55737425  0.11749186  0.97799917    -0.77800
C2610       C  0.52728999  0.11903970  0.97268074     1.02800
Cr2611     Cr  0.54121289  0.10240283  0.90787310     1.93700
Cr2612     Cr  0.58958611  0.04705155  0.90285789     1.93200
Cr2613     Cr  0.59678977  0.09712280  0.95630017     1.39100
O2614       O  0.57461024  0.08072167  0.92391054    -1.22900
O2615       O  0.65470663  0.37319500  0.86048150    -0.85200
O2616       O  0.59900034  0.38940078  0.83089462    -0.82200
C2617       C  0.59941386  0.36408849  0.81581231     0.98300
O2618       O  0.58966270  0.33889578  0.82925441    -0.82200
O2619       O  0.57850053  0.29748612  0.87993817    -0.84900
C2620       C  0.60341085  0.28348183  0.88884878     1.02800
O2621       O  0.62637769  0.29879750  0.89975696    -0.77600
O2622       O  0.66377097  0.35129118  0.90718418    -0.77800
C2623       C  0.67372945  0.36143431  0.88047029     1.02800
O2624       O  0.63619481  0.40850052  0.91313825    -0.85100
O2625       O  0.57734977  0.41481531  0.88789478    -0.82200
C2626       C  0.55098456  0.40814028  0.87557386     0.98300
O2627       O  0.54720747  0.38301984  0.86003776    -0.82200
O2628       O  0.54341456  0.34514822  0.91095733    -0.84800
C2629       C  0.55087956  0.33580190  0.93843088     1.02800
O2630       O  0.57841585  0.32435738  0.94318725    -0.77700
O2631       O  0.61395270  0.37672539  0.94719651    -0.77800
C2632       C  0.62529286  0.40318964  0.94011221     1.02800
Cr2633     Cr  0.61581130  0.39384954  0.87408512     1.93700
Cr2634     Cr  0.56706922  0.34170735  0.87092063     1.93200
Cr2635     Cr  0.61951306  0.33899134  0.92179342     1.39100
O2636       O  0.60106648  0.35762466  0.88886767    -1.22900
O2637       O  0.60813272  0.32679133  0.60819089    -0.85200
O2638       O  0.62203282  0.35361650  0.66527207    -0.82200
C2639       C  0.63359715  0.37324016  0.68432296     0.98300
O2640       O  0.64451811  0.39993523  0.67440522    -0.82200
O2641       O  0.69737847  0.39542828  0.63781221    -0.84900
C2642       C  0.71321843  0.38556564  0.61503541     1.02800
O2643       O  0.70007359  0.37573257  0.59010433    -0.77600
O2644       O  0.65884086  0.32422477  0.60122618    -0.77800
C2645       C  0.63333284  0.31110831  0.61029002     1.02800
O2646       O  0.58203476  0.38495114  0.58770195    -0.85100
O2647       O  0.58804394  0.40813140  0.64748813    -0.82200
C2648       C  0.59353359  0.43582002  0.63810176     0.98300
O2649       O  0.61948074  0.44290668  0.62595972    -0.82200
O2650       O  0.67156243  0.43931819  0.59013349    -0.84800
C2651       C  0.66054943  0.43468854  0.56239533     1.02800
O2652       O  0.65197897  0.40710399  0.55488187    -0.77700
O2653       O  0.61373214  0.35684853  0.55801861    -0.77800
C2654       C  0.58863600  0.37288694  0.56141373     1.02800
Cr2655     Cr  0.60261009  0.36934585  0.62615269     1.93700
Cr2656     Cr  0.65711209  0.41689892  0.63097562     1.93200
Cr2657     Cr  0.65551695  0.36668186  0.57847357     1.39100
O2658       O  0.63906762  0.38427094  0.61219670    -1.22900
O2659       O  0.91095384  0.35443221  0.56421759    -0.85200
O2660       O  0.85998462  0.38868323  0.57460397    -0.82200
C2661       C  0.84248903  0.40866509  0.58720098     0.98300
O2662       O  0.85215437  0.43662065  0.59074787    -0.82200
O2663       O  0.88819614  0.42603154  0.64156514    -0.84900
C2664       C  0.90867788  0.41356805  0.65924858     1.02800
O2665       O  0.93666860  0.41080034  0.64989000    -0.77600
O2666       O  0.92698832  0.36151787  0.61261303    -0.77800
C2667       C  0.91542734  0.34404682  0.59171048     1.02800
O2668       O  0.94035069  0.39756757  0.52628514    -0.85100
O2669       O  0.87845451  0.43882096  0.53166087    -0.82200
C2670       C  0.87676831  0.46849991  0.53844405     0.98300
O2671       O  0.89354126  0.47792178  0.56237582    -0.82200
O2672       O  0.93529663  0.47125137  0.62388089    -0.84800
C2673       C  0.96519758  0.46528402  0.62533885     1.02800
O2674       O  0.97541807  0.44226389  0.60816061    -0.77700
O2675       O  0.97053303  0.38166493  0.56589332    -0.77800
C2676       C  0.96381418  0.38031577  0.53621633     1.02800
Cr2677     Cr  0.89937606  0.39814166  0.55172427     1.93700
Cr2678     Cr  0.89542290  0.45064771  0.60272183     1.93200
Cr2679     Cr  0.94987626  0.40119818  0.60597327     1.39100
O2680       O  0.91642095  0.41822233  0.58531578    -1.22900
O2681       O  0.61446190  0.16732102  0.62102736    -0.85200
O2682       O  0.66724894  0.13380275  0.63648766    -0.82200
C2683       C  0.68537876  0.11288564  0.64773911     0.98300
O2684       O  0.67421547  0.08629635  0.65717538    -0.82200
O2685       O  0.63546110  0.09461071  0.70901901    -0.84900
C2686       C  0.61255269  0.10606783  0.72384155     1.02800
O2687       O  0.58766131  0.11491029  0.70968011    -0.77600
O2688       O  0.60027213  0.16757047  0.67088766    -0.77800
C2689       C  0.61030073  0.18202615  0.64649548     1.02800
O2690       O  0.58980303  0.11217512  0.59124431    -0.85100
O2691       O  0.64633278  0.08289694  0.59911552    -0.82200
C2692       C  0.63437119  0.05604954  0.60372906     0.98300
O2693       O  0.62290973  0.04868528  0.62999207    -0.82200
O2694       O  0.58616143  0.05366321  0.68171659    -0.84800
C2695       C  0.55919636  0.05928393  0.66913366     1.02800
O2696       O  0.55348279  0.08682392  0.65899103    -0.77700
O2697       O  0.56078392  0.13958735  0.62388392    -0.77800
C2698       C  0.56410582  0.12531836  0.59806686     1.02800
Cr2699     Cr  0.62830115  0.12296411  0.61459634     1.93700
Cr2700     Cr  0.62872635  0.07348560  0.66827800     1.93200
Cr2701     Cr  0.57808036  0.12597292  0.66528348     1.39100
O2702       O  0.61211463  0.10771562  0.64997422    -1.22900
O2703       O  0.89233543  0.10890741  0.67862487    -0.85200
O2704       O  0.83724527  0.12848458  0.64983594    -0.82200
C2705       C  0.81829530  0.13984131  0.62964835     0.98300
O2706       O  0.82821807  0.15004135  0.60290686    -0.82200
O2707       O  0.86822511  0.20036013  0.61189618    -0.84900
C2708       C  0.89159564  0.21538450  0.62265194     1.02800
O2709       O  0.91667119  0.20154401  0.63096768    -0.77600
O2710       O  0.90454078  0.15906288  0.68054186    -0.77800
C2711       C  0.89600654  0.13369341  0.69436767     1.02800
O2712       O  0.91114211  0.08319964  0.62035359    -0.85100
O2713       O  0.85320057  0.09265929  0.59609338    -0.82200
C2714       C  0.86493046  0.09714277  0.56927423     0.98300
O2715       O  0.87710521  0.12329776  0.56212899    -0.82200
O2716       O  0.91451530  0.17488716  0.56656316    -0.84800
C2717       C  0.94195547  0.16295930  0.57089600     1.02800
O2718       O  0.94929999  0.15281302  0.59810976    -0.77700
O2719       O  0.94290712  0.11382936  0.64775061    -0.77800
C2720       C  0.93796538  0.08932553  0.63154663     1.02800
Cr2721     Cr  0.87459521  0.10600507  0.63531923     1.93700
Cr2722     Cr  0.87304356  0.16107030  0.58820420     1.93200
Cr2723     Cr  0.92585071  0.15625620  0.63840079     1.39100
O2724       O  0.89100832  0.14167143  0.62068436    -1.22900
C2725       C  0.72922013  0.15055595  0.63713452    -0.12100
C2726       C  0.71991208  0.11984886  0.64688417     0.04900
C2727       C  0.74371270  0.09686190  0.65190040    -0.07400
C2728       C  0.77541712  0.10487072  0.64688139    -0.08100
C2729       C  0.78432679  0.13501773  0.63580904    -0.02700
C2730       C  0.76083754  0.15807327  0.63086148     0.04200
N2731       N  0.76810351  0.18922906  0.61964730     0.66700
H2732       H  0.71182315  0.16881595  0.63310132     0.15600
H2733       H  0.79317628  0.08677430  0.65044394     0.15300
N2734       N  0.73668043  0.06480054  0.66029403     0.74400
O2735       O  0.76381428  0.19534356  0.59065998    -0.39100
O2736       O  0.76708335  0.21172346  0.63907419    -0.39000
O2737       O  0.73771608  0.04422596  0.63883840    -0.39700
O2738       O  0.74133403  0.05607652  0.68856664    -0.39800
C2739       C  0.88307683  0.26066134  0.58896418    -0.12100
C2740       C  0.89220149  0.24951316  0.61884150     0.04900
C2741       C  0.90801572  0.26977273  0.63996246    -0.07400
C2742       C  0.91456390  0.30066204  0.63060259    -0.08100
C2743       C  0.90712600  0.31136525  0.59994145    -0.02700
C2744       C  0.89140954  0.29079884  0.57880795     0.04200
N2745       N  0.88572990  0.29857915  0.54630309     0.66700
H2746       H  0.87215265  0.24488030  0.57207669     0.15600
H2747       H  0.92644526  0.31586721  0.64719134     0.15300
N2748       N  0.91809382  0.25970515  0.67074010     0.74400
O2749       O  0.90489076  0.28829610  0.52600210    -0.39100
O2750       O  0.85764567  0.30406502  0.53763881    -0.39000
O2751       O  0.94710146  0.25369297  0.67497853    -0.39700
O2752       O  0.90184705  0.26810928  0.69421575    -0.39800
C2753       C  0.64797501  0.22448361  0.63438778    -0.12100
C2754       C  0.61783165  0.21604350  0.64571509     0.04900
C2755       C  0.59435236  0.23948144  0.64764143    -0.07400
C2756       C  0.60118890  0.27024733  0.63748616    -0.08100
C2757       C  0.63061881  0.27843146  0.62375565    -0.02700
C2758       C  0.65454062  0.25512752  0.62312772     0.04200
N2759       N  0.68490848  0.26091029  0.60951054     0.66700
H2760       H  0.66596093  0.20652031  0.63217398     0.15600
H2761       H  0.58230593  0.28736367  0.63886914     0.15300
N2762       N  0.56237450  0.23221078  0.65610227     0.74400
O2763       O  0.70811242  0.26513037  0.62794321    -0.39100
O2764       O  0.69020061  0.25033479  0.58219805    -0.39000
O2765       O  0.55227207  0.24177845  0.68239617    -0.39700
O2766       O  0.54259491  0.22745188  0.63414131    -0.39800
C2767       C  0.76472432  0.36506383  0.60014216    -0.12100
C2768       C  0.74753142  0.38844168  0.61544104     0.04900
C2769       C  0.76265916  0.41681364  0.62445436    -0.07400
C2770       C  0.79386878  0.42221377  0.61561191    -0.08100
C2771       C  0.81050045  0.39991401  0.59788297    -0.02700
C2772       C  0.79601247  0.37036936  0.59141424     0.04200
N2773       N  0.81176617  0.34557950  0.57521535     0.66700
H2774       H  0.75332162  0.34313838  0.59348205     0.15600
H2775       H  0.80459902  0.44457978  0.62179082     0.15300
N2776       N  0.74633433  0.44176004  0.64005857     0.74400
O2777       O  0.82197420  0.32254441  0.59149286    -0.39100
O2778       O  0.80450434  0.34099928  0.54661364    -0.39000
O2779       O  0.75264858  0.44659380  0.66883343    -0.39700
O2780       O  0.73583167  0.46446599  0.62350436    -0.39800
C2781       C  0.60693998  0.33876540  0.76373286    -0.12100
C2782       C  0.61125733  0.36513696  0.78294057     0.04900
C2783       C  0.62724544  0.39210147  0.77023317    -0.07400
C2784       C  0.63653360  0.39261633  0.73874380    -0.08100
C2785       C  0.63008189  0.36726921  0.71875990    -0.02700
C2786       C  0.61614452  0.33943275  0.73196674     0.04200
N2787       N  0.61087556  0.31141009  0.71406062     0.66700
H2788       H  0.59577343  0.31766293  0.77311802     0.15600
H2789       H  0.64752999  0.41395244  0.72968249     0.15300
N2790       N  0.63416583  0.41977866  0.78826449     0.74400
O2791       O  0.63011267  0.28882071  0.71771529    -0.39100
O2792       O  0.58286657  0.30508719  0.70557870    -0.39000
O2793       O  0.66243794  0.42419168  0.79707711    -0.39700
O2794       O  0.61657503  0.44366167  0.78451263    -0.39800
C2795       C  0.59338803  0.13040107  0.77189605    -0.12100
C2796       C  0.61246142  0.10720818  0.75834423     0.04900
C2797       C  0.62388446  0.08209330  0.77732225    -0.07400
C2798       C  0.61307241  0.07887121  0.80820142    -0.08100
C2799       C  0.59027678  0.09956402  0.82028247    -0.02700
C2800       C  0.58157013  0.12651980  0.80230814     0.04200
N2801       N  0.55880235  0.14892649  0.81272355     0.66700
H2802       H  0.58492887  0.15007937  0.75770649     0.15600
H2803       H  0.62119440  0.05883800  0.82205421     0.15300
N2804       N  0.64356934  0.05765681  0.76516416     0.74400
O2805       O  0.53032278  0.14505801  0.80425735    -0.39100
O2806       O  0.56844093  0.17668920  0.81806835    -0.39000
O2807       O  0.67250020  0.05765173  0.77286893    -0.39700
O2808       O  0.63074415  0.03176141  0.75756852    -0.39800
C2809       C  0.57378803  0.23455866  0.88227643    -0.12100
C2810       C  0.60271663  0.24871439  0.89038965     0.04900
C2811       C  0.62624747  0.23019053  0.90562234    -0.07400
C2812       C  0.61935558  0.19904574  0.91437039    -0.08100
C2813       C  0.58894786  0.18653484  0.90977891    -0.02700
C2814       C  0.56594992  0.20467037  0.89321298     0.04200
N2815       N  0.53359124  0.19496936  0.88952183     0.66700
H2816       H  0.55545687  0.24779947  0.87016210     0.15600
H2817       H  0.63745112  0.18527989  0.92624177     0.15300
N2818       N  0.65674491  0.24243722  0.91373277     0.74400
O2819       O  0.52448511  0.18516775  0.86290016    -0.39100
O2820       O  0.51318725  0.20693388  0.90757323    -0.39000
O2821       O  0.66230545  0.24882360  0.94234811    -0.39700
O2822       O  0.67977120  0.23587807  0.89601666    -0.39800
C2823       C  0.87747962  0.10081581  0.77571913    -0.12100
C2824       C  0.86279656  0.12669641  0.78978365     0.04900
C2825       C  0.86158009  0.15586634  0.77297828    -0.07400
C2826       C  0.87426110  0.15817304  0.74245815    -0.08100
C2827       C  0.88846643  0.13203330  0.72833139    -0.02700
C2828       C  0.89054506  0.10317766  0.74562843     0.04200
N2829       N  0.90652810  0.07598236  0.73373370     0.66700
H2830       H  0.88013534  0.07878797  0.78868020     0.15600
H2831       H  0.87183001  0.18013094  0.72936455     0.15300
N2832       N  0.84649429  0.18315275  0.78556407     0.74400
O2833       O  0.93427245  0.07040589  0.74357204    -0.39100
O2834       O  0.88995758  0.05310956  0.72397563    -0.39000
O2835       O  0.86375699  0.20592969  0.79426435    -0.39700
O2836       O  0.81837143  0.18891253  0.77704581    -0.39800
C2837       C  0.69094498  0.11756186  0.91683677    -0.12100
C2838       C  0.68022711  0.08880609  0.90470418     0.04900
C2839       C  0.69968054  0.07116507  0.88440504    -0.07400
C2840       C  0.73013602  0.08197495  0.87800120    -0.08100
C2841       C  0.74178066  0.10938741  0.89244848    -0.02700
C2842       C  0.72156296  0.12787652  0.91121243     0.04200
N2843       N  0.73156761  0.15675367  0.92550036     0.66700
H2844       H  0.67572301  0.13184147  0.93142307     0.15600
H2845       H  0.74559663  0.06717687  0.86419569     0.15300
N2846       N  0.69054720  0.04088384  0.87261853     0.74400
O2847       O  0.72357011  0.18243236  0.91228419    -0.39100
O2848       O  0.73694497  0.15671248  0.95490450    -0.39000
O2849       O  0.68285536  0.03882963  0.84383133    -0.39700
O2850       O  0.70093151  0.01648869  0.88664182    -0.39800
C2851       C  0.90910713  0.37721882  0.74168704    -0.12100
C2852       C  0.88071363  0.38937967  0.75333288     0.04900
C2853       C  0.86003590  0.40575656  0.73277617    -0.07400
C2854       C  0.86938320  0.41204910  0.70189246    -0.08100
C2855       C  0.89939271  0.40296293  0.69111164    -0.02700
C2856       C  0.91889603  0.38411041  0.71101987     0.04200
N2857       N  0.94911605  0.37247119  0.70150774     0.66700
H2858       H  0.92520751  0.36458918  0.75721157     0.15600
H2859       H  0.85336572  0.42525855  0.68680230     0.15300
N2860       N  0.82956465  0.41647766  0.74250849     0.74400
O2861       O  0.97352706  0.38757229  0.70999224    -0.39100
O2862       O  0.95169148  0.34322478  0.69626334    -0.39000
O2863       O  0.82603876  0.44558460  0.74794516    -0.39700
O2864       O  0.80563052  0.40053760  0.73420945    -0.39800
C2865       C  0.76305280  0.36432909  0.89022354    -0.12100
C2866       C  0.77165468  0.38297767  0.86387224     0.04900
C2867       C  0.74859822  0.38906195  0.84037368    -0.07400
C2868       C  0.71730157  0.37924832  0.84533673    -0.08100
C2869       C  0.70809601  0.36365910  0.87346892    -0.02700
C2870       C  0.73189903  0.35472556  0.89528731     0.04200
N2871       N  0.72550479  0.33616219  0.92294275     0.66700
H2872       H  0.78053701  0.35753986  0.90773404     0.15600
H2873       H  0.69994531  0.38530368  0.82755084     0.15300
N2874       N  0.75564056  0.40586233  0.81180510     0.74400
O2875       O  0.73187982  0.30699417  0.92223321    -0.39100
O2876       O  0.72547725  0.34983325  0.94937998    -0.39000
O2877       O  0.75709017  0.39025922  0.78652645    -0.39700
O2878       O  0.74857888  0.43484526  0.81005968    -0.39800
C2879       C  0.87476376  0.23011508  0.86563708    -0.12100
C2880       C  0.84966819  0.22159152  0.88587517     0.04900
C2881       C  0.82805669  0.24525488  0.89482027    -0.07400
C2882       C  0.83362693  0.27674819  0.88571445    -0.08100
C2883       C  0.86068564  0.28563845  0.86818351    -0.02700
C2884       C  0.88073120  0.26149654  0.85709443     0.04200
N2885       N  0.90790647  0.26782620  0.83798703     0.66700
H2886       H  0.89100004  0.21236244  0.85721628     0.15600
H2887       H  0.81733672  0.29447807  0.89403025     0.15300
N2888       N  0.80124667  0.23870785  0.91431318     0.74400
O2889       O  0.93486937  0.26701239  0.85102326    -0.39100
O2890       O  0.90600413  0.26232032  0.80873529    -0.39600
O2891       O  0.80272047  0.24625636  0.94311474    -0.39700
O2892       O  0.77434918  0.23738922  0.90120373    -0.39800
C2893       C  0.96438034  0.65380067  0.04425593     0.30200
C2894       C  0.50643085  0.64003961  0.49575104     0.30200
C2895       C  0.95008493  0.63847394  0.51645569    -0.06000
C2896       C  0.98043956  0.68162208  0.02699260    -0.06800
C2897       C  0.49127397  0.63625515  0.05290061    -0.06700
C2898       C  0.97177808  0.62899726  0.49285559    -0.06000
C2899       C  0.50189427  0.67827708  0.50169728    -0.06800
C2900       C  0.51211637  0.62662583  0.02914660    -0.06700
C2901       C  0.95465472  0.62509953  0.46584325    -0.32000
N2902       N  0.92411607  0.63161520  0.47173724     0.14500
C2903       C  0.92087183  0.64053012  0.50201457    -0.32100
H2904       H  0.89970715  0.65108804  0.51157474     0.16400
C2905       C  0.51161410  0.70918513  0.49128321    -0.31000
N2906       N  0.99598470  0.72892567  0.00782568     0.13200
C2907       C  0.97726836  0.71428736  0.02970655    -0.31000
C2908       C  0.54016885  0.61874484  0.04365562    -0.31300
N2909       N  0.53721963  0.62392867  0.07474435     0.13700
H2910       H  0.56247128  0.61333378  0.03253585     0.16300
C2911       C  0.50814133  0.63519434  0.08074717    -0.31300
H2912       H  0.50142791  0.64507997  0.10323409     0.16300
H2913       H  0.96238683  0.72602784  0.04586510     0.16300
H2914       H  0.96414067  0.62198631  0.44232696     0.16400
H2915       H  0.52894399  0.71354459  0.47221660     0.16300
C2916       C  0.52963152  0.84299968  0.46687257     0.30200
C2917       C  0.98400693  0.85650450  0.01073764     0.30200
C2918       C  0.99926089  0.85862229  0.45448667    -0.06000
C2919       C  0.51606565  0.81489219  0.48606823    -0.06800
C2920       C  0.53910195  0.86293317  0.99077580    -0.06700
C2921       C  0.97526339  0.86398111  0.97653758    -0.06000
C2922       C  0.99113307  0.81815499  0.00789229    -0.06800
C2923       C  0.01787247  0.86971377  0.01292155    -0.06700
C2924       C  0.94810337  0.86895285  0.46272953    -0.32000
N2925       N  0.95249660  0.86362078  0.43175743     0.14500
C2926       C  0.98292329  0.85651619  0.42645148    -0.32100
H2927       H  0.99139201  0.84814843  0.40393592     0.16400
C2928       C  0.98271846  0.78724409  0.01958411    -0.31000
N2929       N  0.99829914  0.76308603  0.00361197     0.13200
C2930       C  0.51942171  0.78221233  0.48344488    -0.31000
C2931       C  0.53365931  0.87865715  0.04077784    -0.31300
N2932       N  0.56424689  0.87148326  0.03628655     0.13700
H2933       H  0.52381893  0.88324993  0.06383587     0.16300
C2934       C  0.56796284  0.86134396  0.00634980    -0.31300
H2935       H  0.58909602  0.84978522  0.99788209     0.16300
H2936       H  0.53421058  0.77050915  0.46705108     0.16300
H2937       H  0.92521994  0.87252269  0.47358673     0.16400
H2938       H  0.96566843  0.78295262  0.03877485     0.16300
C2939       C  0.63630844  0.50982468  0.49509268     0.30200
C2940       C  0.65280164  0.95935424  0.03722082     0.30200
C2941       C  0.62679169  0.97609168  0.48909178    -0.06000
C2942       C  0.67450911  0.50412379  0.50020821    -0.06800
C2943       C  0.62527720  0.51105382  0.02883378    -0.06700
C2944       C  0.63569904  0.95229279  0.51089485    -0.06000
C2945       C  0.68066461  0.97691835  0.02141508    -0.06800
C2946       C  0.63368643  0.48671577  0.05055162    -0.06700
C2947       C  0.63659384  0.92433316  0.49461004    -0.32000
N2948       N  0.62882499  0.93010156  0.46451018     0.14500
C2949       C  0.62372474  0.96121360  0.46024843    -0.32100
H2950       H  0.62051515  0.97210548  0.43722370     0.16400
C2951       C  0.71334364  0.97376933  0.02412245    -0.31000
N2952       N  0.72783814  0.99513779  0.00482105     0.13200
C2953       C  0.70528985  0.51484241  0.49073235    -0.31000
C2954       C  0.63615449  0.50038503  0.07978682    -0.31300
N2955       N  0.63005583  0.53138518  0.07672841     0.13700
H2956       H  0.64608431  0.48981640  0.10097786     0.16300
C2957       C  0.62421925  0.53844447  0.04616612    -0.31300
H2958       H  0.62247922  0.56234553  0.03691482     0.16300
H2959       H  0.70940934  0.53372487  0.47366887     0.16300
H2960       H  0.64585323  0.90176624  0.50240668     0.16400
H2961       H  0.72547626  0.95699870  0.03918973     0.16300
C2962       C  0.85529836  0.98971818  0.01423181     0.30200
C2963       C  0.83789354  0.53976013  0.47206776     0.30200
C2964       C  0.86782788  0.98733040  0.98016779    -0.06000
C2965       C  0.81702253  0.99338080  0.00760470    -0.06800
C2966       C  0.86382466  0.52492153  0.02404094    -0.06700
C2967       C  0.85997239  0.01261564  0.45861413    -0.06000
C2968       C  0.81048352  0.52066628  0.48666901    -0.06800
C2969       C  0.85475485  0.54824462  0.00192358    -0.06700
C2970       C  0.85789594  0.99765214  0.42976969    -0.32000
N2971       N  0.86745333  0.96742318  0.43342677     0.14500
C2972       C  0.87471786  0.96220672  0.46404141    -0.32100
H2973       H  0.87904030  0.93890151  0.47387475     0.16400
C2974       C  0.77784798  0.52317147  0.48364160    -0.31000
N2975       N  0.76278795  0.49874337  0.00244418     0.13200
C2976       C  0.78629117  0.98234125  0.01713572    -0.31000
C2977       C  0.85378669  0.57639096  0.01763493    -0.31300
N2978       N  0.86168034  0.57092889  0.04777801     0.13700
H2979       H  0.84514719  0.59905359  0.00928813     0.16300
C2980       C  0.86664793  0.53982713  0.05269517    -0.31300
H2981       H  0.87033510  0.52898799  0.07568672     0.16300
H2982       H  0.78232520  0.96395422  0.03472642     0.16300
H2983       H  0.84656702  0.00683688  0.40863462     0.16400
H2984       H  0.76556375  0.53990459  0.46858469     0.16300
C2985       C  0.98711931  0.98517725  0.14351592     0.30200
C2986       C  0.53238894  0.53276886  0.16151724     0.30200
C2987       C  0.98456851  0.51981852  0.13111247    -0.06000
C2988       C  0.99230341  0.99135620  0.18182113    -0.06800
C2989       C  0.02135805  0.97942717  0.13354641    -0.06700
C2990       C  0.00695679  0.54282269  0.14044631    -0.06000
C2991       C  0.51535485  0.51697618  0.18952557    -0.06800
C2992       C  0.54489333  0.00387536  0.14352150    -0.06700
C2993       C  0.99107650  0.57111120  0.14137408    -0.32000
N2994       N  0.96115182  0.56624626  0.13189783     0.14500
C2995       C  0.95676186  0.53554615  0.12552046    -0.32100
H2996       H  0.93364535  0.52514884  0.12177661     0.16400
C2997       C  0.51796275  0.52100516  0.22198761    -0.31000
N2998       N  0.99837262  0.50091270  0.23699773     0.13200
C2999       C  0.98213834  0.98244249  0.21312904    -0.31000
C3000       C  0.57364030  0.98890478  0.14433002    -0.31300
N3001       N  0.56890862  0.95846829  0.13661038     0.13700
H3002       H  0.59571270  0.99808228  0.15353463     0.16300
C3003       C  0.53785155  0.95304933  0.13189218    -0.31300
H3004       H  0.52752778  0.92978631  0.12886852     0.16300
H3005       H  0.96385111  0.96491957  0.21795142     0.16300
H3006       H  0.99897797  0.59277706  0.15233800     0.16400
H3007       H  0.53401218  0.53707810  0.23362485     0.16300
C3008       C  0.50357991  0.51367147  0.36419702     0.30200
C3009       C  0.95775402  0.96844554  0.34658490     0.30200
C3010       C  0.96931383  0.52066432  0.37250707    -0.06000
C3011       C  0.49896754  0.50719961  0.32599857    -0.06800
C3012       C  0.50667864  0.98011029  0.37795122    -0.06700
C3013       C  0.94594234  0.49883199  0.36354081    -0.06000
C3014       C  0.97637875  0.98253303  0.31866319    -0.06800
C3015       C  0.48341927  0.95779499  0.36896387    -0.06700
C3016       C  0.91759977  0.51472973  0.36335285    -0.32000
N3017       N  0.92305217  0.54476056  0.37178129     0.14500
C3018       C  0.95426848  0.54922322  0.37658155    -0.32100
H3019       H  0.96500101  0.57203340  0.38106255     0.16400
C3020       C  0.97382349  0.97819725  0.28620722    -0.31000
N3021       N  0.99503619  0.99703962  0.27102015     0.13200
C3022       C  0.50971845  0.51588949  0.29490802    -0.31000
C3023       C  0.49819337  0.92881651  0.36888822    -0.31300
N3024       N  0.52836238  0.93292704  0.37847383     0.13700
H3025       H  0.48917766  0.90723931  0.35855437     0.16300
C3026       C  0.53385029  0.96366088  0.38353061    -0.31300
H3027       H  0.55740852  0.97352143  0.38578376     0.16300
H3028       H  0.52832454  0.53316541  0.29027934     0.16300
H3029       H  0.89480040  0.50658179  0.35496280     0.16400
H3030       H  0.95730883  0.96262106  0.27470197     0.16300
O3031       O  0.82073712  0.89590861  0.38660921    -0.85200
O3032       O  0.85042989  0.83996910  0.37279213    -0.82200
C3033       C  0.87087895  0.82092544  0.36256334     0.98300
O3034       O  0.89824064  0.83095191  0.35440695    -0.82200
O3035       O  0.89203725  0.86944582  0.30268825    -0.84900
C3036       C  0.88130285  0.89188499  0.28626493     1.02800
O3037       O  0.87353383  0.91779007  0.29853455    -0.77600
O3038       O  0.82148535  0.90687160  0.33630996    -0.77800
C3039       C  0.80683033  0.89658024  0.36023459     1.02800
O3040       O  0.87647782  0.91617990  0.41755936    -0.85100
O3041       O  0.90182077  0.85762957  0.41188595    -0.82200
C3042       C  0.92968448  0.86709516  0.40762220     0.98300
O3043       O  0.93775675  0.87983690  0.38207746    -0.82200
O3044       O  0.93589580  0.91662335  0.32970857    -0.84800
C3045       C  0.93088650  0.94421524  0.34059005     1.02800
O3046       O  0.90328484  0.95163200  0.34881479    -0.77700
O3047       O  0.85124264  0.94764377  0.38444972    -0.77800
C3048       C  0.86526507  0.94293715  0.41067292     1.02800
Cr3049     Cr  0.86340071  0.87847808  0.39470645     1.93700
Cr3050     Cr  0.91353417  0.87546444  0.34315566     1.93200
Cr3051     Cr  0.86333057  0.92848630  0.34288397     1.39100
O3052       O  0.88017398  0.89398496  0.35982267    -1.22900
O3053       O  0.86654948  0.64813363  0.34428534    -0.85200
O3054       O  0.87823613  0.67694670  0.40027665    -0.82200
C3055       C  0.85195458  0.69083937  0.39816466     0.98300
O3056       O  0.82759306  0.67657444  0.40829882    -0.82200
O3057       O  0.78977955  0.62406597  0.42005423    -0.84900
C3058       C  0.77764439  0.61619538  0.39404852     1.02800
O3059       O  0.79438648  0.60618682  0.37180670    -0.77600
O3060       O  0.84768255  0.60032789  0.33583930    -0.77800
C3061       C  0.85696231  0.62741874  0.32550130     1.02800
O3062       O  0.90377760  0.59546115  0.36389898    -0.85100
O3063       O  0.90767838  0.62078345  0.42158894    -0.82200
C3064       C  0.90103344  0.63302065  0.44759736     0.98300
O3065       O  0.87506855  0.64743339  0.45156130    -0.82200
O3066       O  0.83943486  0.59484919  0.45540420    -0.84800
C3067       C  0.83120371  0.56710874  0.44800915     1.02800
O3068       O  0.81993025  0.56235844  0.42039847    -0.77700
O3069       O  0.87314470  0.56011868  0.38601390    -0.77800
C3070       C  0.89912859  0.56782369  0.37411326     1.02800
Cr3071     Cr  0.88660918  0.63436191  0.38347310     1.93700
Cr3072     Cr  0.83376368  0.63495154  0.43155695     1.93200
Cr3073     Cr  0.83462019  0.58458810  0.37954554     1.39100
O3074       O  0.85114333  0.61791896  0.39795061    -1.22900
O3075       O  0.55701248  0.64765754  0.41951598    -0.85200
O3076       O  0.56812456  0.61424644  0.36718216    -0.82200
C3077       C  0.57983798  0.59304357  0.35033790     0.98300
O3078       O  0.57988152  0.56479695  0.36010706    -0.82200
O3079       O  0.63259269  0.56953990  0.39360569    -0.84900
C3080       C  0.65057946  0.58218659  0.41327720     1.02800
O3081       O  0.64153499  0.58776826  0.44095824    -0.77600
O3082       O  0.60619230  0.63977252  0.43189607    -0.77800
C3083       C  0.58486873  0.65740607  0.42080355     1.02800
O3084       O  0.51865212  0.60518182  0.44771668    -0.85100
O3085       O  0.52243128  0.56651295  0.38465934    -0.82200
C3086       C  0.52722188  0.53653410  0.38406834     0.98300
O3087       O  0.54962729  0.52587188  0.40228083    -0.82200
O3088       O  0.61259899  0.52771505  0.44254661    -0.84800
C3089       C  0.61656986  0.53422570  0.47206865     1.02800
O3090       O  0.60150265  0.55875272  0.48248971    -0.77700
O3091       O  0.55934320  0.61995943  0.47709437    -0.77800
C3092       C  0.52931235  0.62132226  0.47152251     1.02800
Cr3093     Cr  0.54401941  0.60512137  0.40654462     1.93700
Cr3094     Cr  0.59189103  0.54940809  0.40277152     1.93200
Cr3095     Cr  0.59897620  0.59982665  0.45580845     1.39100
O3096       O  0.57697551  0.58332244  0.42333171    -1.22900
O3097       O  0.65661887  0.87759573  0.36072713    -0.85200
O3098       O  0.60108726  0.89270431  0.33170429    -0.82200
C3099       C  0.60178170  0.86719816  0.31689271     0.98300
O3100       O  0.59241197  0.84200781  0.33062739    -0.82200
O3101       O  0.58152102  0.80058888  0.38144873    -0.84900
C3102       C  0.60666425  0.78675939  0.38989846     1.02800
O3103       O  0.62975005  0.80227611  0.40021603    -0.77600
O3104       O  0.66705045  0.85504448  0.40683761    -0.77800
C3105       C  0.67619216  0.86565057  0.37993377     1.02800
O3106       O  0.63832166  0.91246773  0.41398133    -0.85100
O3107       O  0.57937058  0.91771941  0.38918274    -0.82200
C3108       C  0.55318205  0.91086126  0.37669819     0.98300
O3109       O  0.54963999  0.88572804  0.36116459    -0.82200
O3110       O  0.54629926  0.84785236  0.41234167    -0.84800
C3111       C  0.55391416  0.83823916  0.43969697     1.02800
O3112       O  0.58185606  0.82753658  0.44436877    -0.77700
O3113       O  0.61749557  0.87984442  0.44815672    -0.77800
C3114       C  0.62815372  0.90658755  0.44116468     1.02800
Cr3115     Cr  0.61786763  0.89749176  0.37497046     1.93700
Cr3116     Cr  0.56985496  0.84468712  0.37223087     1.93200
Cr3117     Cr  0.62290363  0.84239075  0.42239735     1.39100
O3118       O  0.60380173  0.86101208  0.38986402    -1.22900
O3119       O  0.60705044  0.82431814  0.11073314    -0.85200
O3120       O  0.62082251  0.85392834  0.16616886    -0.82200
C3121       C  0.63257247  0.87411039  0.18449210     0.98300
O3122       O  0.64339175  0.90040705  0.17366330    -0.82200
O3123       O  0.69595167  0.89300167  0.13698904    -0.84900
C3124       C  0.71167081  0.88304703  0.11412952     1.02800
O3125       O  0.69829650  0.87402247  0.08897817    -0.77600
O3126       O  0.65764947  0.82275449  0.10104208    -0.77800
C3127       C  0.63280430  0.80929212  0.11125567     1.02800
O3128       O  0.57997407  0.88160443  0.08760479    -0.85100
O3129       O  0.58659682  0.90769689  0.14582108    -0.82200
C3130       C  0.59252820  0.93506079  0.13566718     0.98300
O3131       O  0.61881399  0.94165517  0.12394352    -0.82200
O3132       O  0.67102464  0.93628731  0.08838136    -0.84800
C3133       C  0.65889859  0.93186883  0.06110780     1.02800
O3134       O  0.64914996  0.90454612  0.05408622    -0.77700
O3135       O  0.61170831  0.85327341  0.05837186    -0.77800
C3136       C  0.58647302  0.86905344  0.06154077     1.02800
Cr3137     Cr  0.60118715  0.86785809  0.12648793     1.93700
Cr3138     Cr  0.65611153  0.91531125  0.12969243     1.93200
Cr3139     Cr  0.65354320  0.86449716  0.07800853     1.39100
O3140       O  0.63750960  0.88242958  0.11176456    -1.22900
O3141       O  0.90910773  0.85139926  0.06170330    -0.85200
O3142       O  0.85816035  0.88518218  0.07224728    -0.82200
C3143       C  0.84079922  0.90494538  0.08532057     0.98300
O3144       O  0.85031034  0.93300573  0.08860102    -0.82200
O3145       O  0.88624828  0.92216051  0.13917833    -0.84900
C3146       C  0.90695045  0.90999015  0.15673995     1.02800
O3147       O  0.93492907  0.90771700  0.14740190    -0.77600
O3148       O  0.92462663  0.85860859  0.11021374    -0.77800
C3149       C  0.91266609  0.84130290  0.08937051     1.02800
O3150       O  0.93862412  0.89441218  0.02419024    -0.85100
O3151       O  0.87667725  0.93568446  0.02975228    -0.82200
C3152       C  0.87500971  0.96528565  0.03675462     0.98300
O3153       O  0.89178431  0.97464027  0.06067666    -0.82200
O3154       O  0.93338300  0.96793523  0.12219506    -0.84800
C3155       C  0.96334920  0.96211595  0.12365018     1.02800
O3156       O  0.97356457  0.93921982  0.10618759    -0.77700
O3157       O  0.96856354  0.87828411  0.06387671    -0.77800
C3158       C  0.96184047  0.87686477  0.03424654     1.02800
Cr3159     Cr  0.89756156  0.89498595  0.04944094     1.93700
Cr3160     Cr  0.89352393  0.94720158  0.10073593     1.93200
Cr3161     Cr  0.94798403  0.89803991  0.10372192     1.39100
O3162       O  0.91461183  0.91504634  0.08307159    -1.22900
O3163       O  0.61347084  0.66496408  0.11859279    -0.85200
O3164       O  0.66575774  0.63157230  0.13357724    -0.82200
C3165       C  0.68387314  0.61094541  0.14520754     0.98300
O3166       O  0.67312355  0.58426911  0.15489668    -0.82200
O3167       O  0.63500515  0.59243783  0.20641052    -0.84900
C3168       C  0.61249643  0.60400949  0.22161469     1.02800
O3169       O  0.58759097  0.61357609  0.20800484    -0.77600
O3170       O  0.60133532  0.66553634  0.16888328    -0.77800
C3171       C  0.61135549  0.67966433  0.14433491     1.02800
O3172       O  0.58790346  0.60982856  0.08955100    -0.85100
O3173       O  0.64435013  0.58022557  0.09656626    -0.82200
C3174       C  0.63217122  0.55352039  0.10148273     0.98300
O3175       O  0.62118301  0.54642993  0.12797502    -0.82200
O3176       O  0.58489549  0.55233914  0.17957806    -0.84800
C3177       C  0.55785317  0.55850610  0.16739198     1.02800
O3178       O  0.55216380  0.58621050  0.15773084    -0.77700
O3179       O  0.55995757  0.63836928  0.12220054    -0.77800
C3180       C  0.56259739  0.62363484  0.09651171     1.02800
Cr3181     Cr  0.62678712  0.62054314  0.11212017     1.93700
Cr3182     Cr  0.62761659  0.57144373  0.16600399     1.93200
Cr3183     Cr  0.57771101  0.62471068  0.16359101     1.39100
O3184       O  0.61105752  0.60566993  0.14778223    -1.22900
O3185       O  0.88911868  0.60979000  0.17948174    -0.85200
O3186       O  0.83473468  0.62818129  0.14885106    -0.82200
C3187       C  0.81632278  0.63862387  0.12765567     0.98300
O3188       O  0.82725813  0.64748014  0.10095413    -0.82200
O3189       O  0.86621636  0.69789418  0.11093920    -0.84900
C3190       C  0.88923340  0.71351054  0.12140254     1.02800
O3191       O  0.91465918  0.70034637  0.12982795    -0.77600
O3192       O  0.90060527  0.65987759  0.18031023    -0.77800
C3193       C  0.88948969  0.63541271  0.19398634     1.02800
O3194       O  0.90969896  0.58165167  0.12361548    -0.85100
O3195       O  0.85226133  0.59065813  0.09721980    -0.82200
C3196       C  0.86386119  0.59490452  0.07033832     0.98300
O3197       O  0.87706993  0.62047136  0.06296401    -0.82200
O3198       O  0.91393126  0.67246883  0.06729061    -0.84800
C3199       C  0.94101178  0.65994915  0.07184255     1.02800
O3200       O  0.94821904  0.65033908  0.09936182    -0.77700
O3201       O  0.94098795  0.61317583  0.15065424    -0.77800
C3202       C  0.93637708  0.58811117  0.13515691     1.02800
Cr3203     Cr  0.87256673  0.60505778  0.13639676     1.93700
Cr3204     Cr  0.87220979  0.65860091  0.08786616     1.93200
Cr3205     Cr  0.92384623  0.65532746  0.13917891     1.39100
O3206       O  0.88952353  0.64004427  0.12104240    -1.22900
C3207       C  0.72753088  0.63309262  0.11454463    -0.12100
C3208       C  0.71794736  0.61792985  0.14262786     0.04900
C3209       C  0.74040938  0.61279004  0.16678695    -0.07400
C3210       C  0.77183980  0.62207514  0.16197433    -0.08100
C3211       C  0.78180717  0.63586576  0.13319407    -0.02700
C3212       C  0.75882331  0.64226166  0.10963413     0.04200
N3213       N  0.76615865  0.65785912  0.08043679     0.66700
H3214       H  0.71053665  0.63771990  0.09587393     0.15600
H3215       H  0.78855214  0.61783769  0.18082347     0.15300
N3216       N  0.73208407  0.59946790  0.19677318     0.74400
O3217       O  0.76938747  0.64114765  0.05605736    -0.39100
O3218       O  0.75767609  0.68632632  0.07696545    -0.39000
O3219       O  0.74063956  0.57146024  0.20290194    -0.39700
O3220       O  0.72768775  0.61809755  0.21951480    -0.39800
C3221       C  0.88198029  0.75743876  0.08594304    -0.12100
C3222       C  0.88898468  0.74735921  0.11672372     0.04900
C3223       C  0.90129588  0.76871440  0.13886643    -0.07400
C3224       C  0.90755073  0.79954225  0.12936234    -0.08100
C3225       C  0.90308302  0.80913118  0.09781439    -0.02700
C3226       C  0.88940122  0.78784630  0.07599719     0.04200
N3227       N  0.88396542  0.79556644  0.04343233     0.66700
H3228       H  0.87307212  0.74088377  0.06865013     0.15600
H3229       H  0.91667209  0.81566088  0.14665423     0.15300
N3230       N  0.90745690  0.76000738  0.17102200     0.74400
O3231       O  0.90427718  0.78696610  0.02345925    -0.39100
O3232       O  0.85571171  0.79902327  0.03422033    -0.39000
O3233       O  0.93589279  0.75615174  0.17957409    -0.39700
O3234       O  0.88737096  0.76769969  0.19161175    -0.39800
C3235       C  0.64733929  0.72124481  0.12540661    -0.12100
C3236       C  0.62059268  0.71330240  0.14358402     0.04900
C3237       C  0.60084765  0.73764224  0.15438054    -0.07400
C3238       C  0.60675793  0.76880479  0.14469842    -0.08100
C3239       C  0.63193960  0.77651882  0.12415875    -0.02700
C3240       C  0.65316461  0.75241449  0.11556293     0.04200
N3241       N  0.67926071  0.75815569  0.09492218     0.66700
H3242       H  0.66280941  0.70276530  0.11706674     0.15600
H3243       H  0.59034593  0.78683279  0.15198011     0.15300
N3244       N  0.57295399  0.73125257  0.17240364     0.74400
O3245       O  0.70671668  0.75933917  0.10681636    -0.39100
O3246       O  0.67634819  0.75075552  0.06618453    -0.39000
O3247       O  0.57348179  0.73686937  0.20167807    -0.39700
O3248       O  0.54655640  0.73083066  0.15824578    -0.39800
C3249       C  0.76289687  0.86160230  0.09890150    -0.12100
C3250       C  0.74611251  0.88503694  0.11465333     0.04900
C3251       C  0.76190950  0.91275514  0.12445291    -0.07400
C3252       C  0.79301296  0.91799280  0.11520591    -0.08100
C3253       C  0.80912245  0.89591219  0.09677277    -0.02700
C3254       C  0.79437219  0.86645625  0.09036467     0.04200
N3255       N  0.81021720  0.84115906  0.07498871     0.66700
H3256       H  0.75114323  0.83993635  0.09204666     0.15600
H3257       H  0.80413410  0.94005627  0.12179631     0.15300
N3258       N  0.74646759  0.93716007  0.14166995     0.74400
O3259       O  0.82096394  0.81894506  0.09205635    -0.39100
O3260       O  0.80268331  0.83527419  0.04671336    -0.39000
O3261       O  0.75312273  0.93997089  0.17065553    -0.39700
O3262       O  0.73671696  0.96119871  0.12662407    -0.39800
C3263       C  0.60833831  0.84118967  0.26522063    -0.12100
C3264       C  0.61325299  0.86782018  0.28388909     0.04900
C3265       C  0.62900892  0.89452333  0.27036104    -0.07400
C3266       C  0.63730164  0.89454521  0.23854172    -0.08100
C3267       C  0.62991667  0.86897745  0.21912126    -0.02700
C3268       C  0.61626933  0.84145773  0.23316808     0.04200
N3269       N  0.60909338  0.81366145  0.21562061     0.66700
H3270       H  0.59724308  0.82029796  0.27516054     0.15600
H3271       H  0.64811299  0.91566077  0.22878736     0.15300
N3272       N  0.63649677  0.92244821  0.28777618     0.74400
O3273       O  0.62761256  0.79036577  0.21834465    -0.39100
O3274       O  0.58044953  0.80843810  0.20864509    -0.39000
O3275       O  0.66525680  0.92783217  0.29406755    -0.39700
O3276       O  0.61799791  0.94578222  0.28530419    -0.39800
C3277       C  0.59962941  0.63049360  0.27061601    -0.12100
C3278       C  0.61323334  0.60442336  0.25593892     0.04900
C3279       C  0.62022732  0.57703656  0.27378215    -0.07400
C3280       C  0.61083276  0.57529795  0.30512572    -0.08100
C3281       C  0.59346246  0.59981751  0.31895823    -0.02700
C3282       C  0.58941449  0.62846659  0.30183017     0.04200
N3283       N  0.57284110  0.65495427  0.31403288     0.66700
H3284       H  0.59447534  0.65167200  0.25700568     0.15600
H3285       H  0.61546495  0.55352107  0.31790697     0.15300
N3286       N  0.63311661  0.54917597  0.25998023     0.74400
O3287       O  0.54459067  0.65894745  0.30492649    -0.39100
O3288       O  0.58893087  0.67897611  0.32166347    -0.39000
O3289       O  0.66124383  0.54171945  0.26698582    -0.39700
O3290       O  0.61419326  0.52755421  0.25166802    -0.39800
C3291       C  0.57805202  0.73755786  0.38131001    -0.12100
C3292       C  0.60624277  0.75197541  0.39125449     0.04900
C3293       C  0.62905728  0.73357388  0.40768658    -0.07400
C3294       C  0.62208572  0.70221366  0.41564889    -0.08100
C3295       C  0.59213647  0.68938643  0.40920155    -0.02700
C3296       C  0.56998659  0.70744018  0.39145465     0.04200
N3297       N  0.53818192  0.69725208  0.38540404     0.66700
H3298       H  0.56034301  0.75071981  0.36819711     0.15600
H3299       H  0.63958783  0.68857067  0.42851595     0.15300
N3300       N  0.65865967  0.74624343  0.41810123     0.74400
O3301       O  0.53071438  0.68990570  0.35752724    -0.39100
O3302       O  0.51659075  0.70719928  0.40331483    -0.39000
O3303       O  0.66202990  0.75237015  0.44710283    -0.39700
O3304       O  0.68302468  0.74042824  0.40197029    -0.39800
C3305       C  0.85164677  0.60875790  0.27106957    -0.12100
C3306       C  0.86041715  0.63325177  0.29115632     0.04900
C3307       C  0.87578853  0.66037086  0.27802296    -0.07400
C3308       C  0.88391953  0.66110105  0.24601438    -0.08100
C3309       C  0.87743196  0.63531288  0.22667098    -0.02700
C3310       C  0.85997931  0.60927671  0.23935599     0.04200
N3311       N  0.85080360  0.58242403  0.22109144     0.66700
H3312       H  0.83945304  0.58809882  0.28017229     0.15600
H3313       H  0.89638672  0.68147842  0.23666671     0.15300
N3314       N  0.88441273  0.68720466  0.29644936     0.74400
O3315       O  0.86771561  0.55786593  0.22294283    -0.39100
O3316       O  0.82184818  0.57923818  0.21419992    -0.39000
O3317       O  0.91322433  0.69069545  0.30383748    -0.39700
O3318       O  0.86709436  0.71146943  0.29454331    -0.39800
C3319       C  0.69269038  0.62105690  0.41670551    -0.12100
C3320       C  0.68192883  0.59263440  0.40381185     0.04900
C3321       C  0.70101344  0.57599468  0.38234512    -0.07400
C3322       C  0.73141201  0.58700785  0.37606115    -0.08100
C3323       C  0.74338101  0.61351927  0.39185765    -0.02700
C3324       C  0.72328566  0.63151814  0.41120145     0.04200
N3325       N  0.73364599  0.65963702  0.42670196     0.66700
H3326       H  0.67766265  0.63474712  0.43204399     0.15600
H3327       H  0.74665416  0.57277051  0.36146323     0.15300
N3328       N  0.69166554  0.54629923  0.36931700     0.74400
O3329       O  0.72471629  0.68595380  0.41553457    -0.39100
O3330       O  0.74088262  0.65789643  0.45567136    -0.39000
O3331       O  0.68365927  0.54552068  0.34053655    -0.39700
O3332       O  0.70199982  0.52128112  0.38221585    -0.39800
C3333       C  0.90954054  0.87528017  0.23936001    -0.12100
C3334       C  0.88262351  0.88957715  0.25201644     0.04900
C3335       C  0.86150147  0.90600204  0.23201167    -0.07400
C3336       C  0.86936754  0.91076042  0.20053754    -0.08100
C3337       C  0.89824542  0.89981109  0.18867011    -0.02700
C3338       C  0.91771662  0.88031742  0.20793385     0.04200
N3339       N  0.94613140  0.86589726  0.19680211     0.66700
H3340       H  0.92572479  0.86220296  0.25440696     0.15600
H3341       H  0.85330431  0.92437085  0.18585875     0.15300
N3342       N  0.83202899  0.91820457  0.24290535     0.74400
O3343       O  0.97220879  0.87947882  0.20243106    -0.39100
O3344       O  0.94612302  0.83628720  0.19309155    -0.39000
O3345       O  0.82963014  0.94768692  0.24680824    -0.39700
O3346       O  0.80721576  0.90247886  0.23714347    -0.39800
C3347       C  0.76616486  0.86166470  0.38234508    -0.12100
C3348       C  0.77395768  0.88474789  0.35948670     0.04900
C3349       C  0.74976014  0.89712273  0.34007093    -0.07400
C3350       C  0.71835020  0.88856378  0.34611993    -0.08100
C3351       C  0.71019362  0.86806086  0.37137282    -0.02700
C3352       C  0.73481364  0.85346850  0.38867749     0.04200
N3353       N  0.72905160  0.83062716  0.41306211     0.66700
H3354       H  0.78454234  0.85071792  0.39653005     0.15600
H3355       H  0.70028206  0.89965822  0.33205018     0.15300
N3356       N  0.75575756  0.91982650  0.31555303     0.74400
O3357       O  0.73255961  0.80175710  0.40650485    -0.39100
O3358       O  0.73250300  0.83907916  0.44144041    -0.39000
O3359       O  0.75301917  0.91099729  0.28721629    -0.39700
O3360       O  0.75203432  0.94878083  0.32162731    -0.39800
C3361       C  0.87979934  0.73172609  0.36728269    -0.12100
C3362       C  0.85216935  0.72315929  0.38389881     0.04900
C3363       C  0.82806229  0.74602602  0.38690877    -0.07400
C3364       C  0.83388913  0.77729528  0.37708929    -0.08100
C3365       C  0.86333378  0.78654053  0.36419702    -0.02700
C3366       C  0.88565403  0.76274172  0.35753907     0.04200
N3367       N  0.91505312  0.76919510  0.34209338     0.66700
H3368       H  0.89801002  0.71444995  0.36276421     0.15600
H3369       H  0.81565431  0.79465623  0.38116656     0.15300
N3370       N  0.79790776  0.73883476  0.40040131     0.74400
O3371       O  0.93997532  0.76999941  0.35869459    -0.39100
O3372       O  0.91740262  0.76248259  0.31315588    -0.39600
O3373       O  0.79251976  0.74780440  0.42826724    -0.39700
O3374       O  0.77468723  0.73526694  0.38182845    -0.39800
C3375       C  0.96364492  0.65818330  0.54342055     0.30200
C3376       C  0.50569101  0.63847602  0.99561865     0.30200
C3377       C  0.95012610  0.63498636  0.01678693    -0.06000
C3378       C  0.97941982  0.68587255  0.52563610    -0.06800
C3379       C  0.49222427  0.63767950  0.55308150    -0.06700
C3380       C  0.97158994  0.62558003  0.99300797    -0.06000
C3381       C  0.50134363  0.67687205  0.00143781    -0.06800
C3382       C  0.51311964  0.62820212  0.52923883    -0.06700
C3383       C  0.95452078  0.62303141  0.96569934    -0.32000
N3384       N  0.92408745  0.63018248  0.97146706     0.14500
C3385       C  0.92101098  0.63833409  0.00205888    -0.32100
H3386       H  0.90002473  0.64904581  0.01186088     0.16400
C3387       C  0.51032612  0.70791235  0.99051508    -0.31000
N3388       N  0.99618225  0.73300021  0.50719812     0.13200
C3389       C  0.97672413  0.71852595  0.52853078    -0.31000
C3390       C  0.54123537  0.62034154  0.54364933    -0.31300
N3391       N  0.53829351  0.62545063  0.57474244     0.13700
H3392       H  0.56355519  0.61506904  0.53249656     0.16300
C3393       C  0.50914965  0.63651520  0.58084895    -0.31300
H3394       H  0.50245687  0.64629881  0.60339503     0.16300
H3395       H  0.96203903  0.73037392  0.54478087     0.16300
H3396       H  0.96411880  0.62015386  0.94220362     0.16400
H3397       H  0.52716858  0.71235060  0.97108824     0.16300
C3398       C  0.52624438  0.84141438  0.96476571     0.30200
C3399       C  0.98574216  0.86002577  0.51176183     0.30200
C3400       C  0.99697237  0.85515856  0.95329380    -0.06000
C3401       C  0.51232102  0.81356999  0.98374350    -0.06800
C3402       C  0.54150078  0.86513773  0.49273560    -0.06700
C3403       C  0.97714823  0.86721694  0.47753016    -0.06000
C3404       C  0.99353796  0.82199978  0.50908846    -0.06800
C3405       C  0.01916038  0.87422896  0.51406496    -0.06700
C3406       C  0.94618208  0.86666629  0.96182753    -0.32000
N3407       N  0.95030020  0.86177781  0.93071325     0.14500
C3408       C  0.98050747  0.85398125  0.92522610    -0.32100
H3409       H  0.98859015  0.84562064  0.90258374     0.16400
C3410       C  0.98393482  0.79118788  0.51974227    -0.31000
N3411       N  0.99964240  0.76711393  0.50386861     0.13200
C3412       C  0.51601980  0.78097164  0.98127536    -0.31000
C3413       C  0.53554303  0.88122131  0.54253500    -0.31300
N3414       N  0.56641911  0.87539243  0.53782149     0.13700
H3415       H  0.52559537  0.88540810  0.56561710     0.16300
C3416       C  0.57043832  0.86512552  0.50800698    -0.31300
H3417       H  0.59198603  0.85432469  0.49954680     0.16300
H3418       H  0.53077857  0.76929984  0.96477540     0.16300
H3419       H  0.92341283  0.87046501  0.97284075     0.16400
H3420       H  0.96561834  0.78690703  0.53772246     0.16300
C3421       C  0.63560732  0.50727310  0.99425395     0.30200
C3422       C  0.65564061  0.96244136  0.53927481     0.30200
C3423       C  0.62397439  0.97314682  0.98711089    -0.06000
C3424       C  0.67377699  0.50140735  0.99948564    -0.06800
C3425       C  0.62614339  0.51355438  0.52976664    -0.06700
C3426       C  0.63288934  0.94929892  0.00880860    -0.06000
C3427       C  0.68352317  0.97988707  0.52332573    -0.06800
C3428       C  0.63464908  0.48913907  0.55140432    -0.06700
C3429       C  0.63329042  0.92128181  0.99263658    -0.32000
N3430       N  0.62522583  0.92708010  0.96261932     0.14500
C3431       C  0.62050499  0.95827907  0.95830400    -0.32100
H3432       H  0.61714964  0.96921631  0.93530971     0.16400
C3433       C  0.71619494  0.97680148  0.52601097    -0.31000
N3434       N  0.73060581  0.99808130  0.50654789     0.13200
C3435       C  0.70461720  0.51190769  0.99000727    -0.31000
C3436       C  0.63720362  0.50269545  0.58070108    -0.31300
N3437       N  0.63122530  0.53373187  0.57774623     0.13700
H3438       H  0.64689050  0.49195249  0.60189716     0.16300
C3439       C  0.62531267  0.54090904  0.54720427    -0.31300
H3440       H  0.62350194  0.56483807  0.53800733     0.16300
H3441       H  0.70885072  0.53073288  0.97287842     0.16300
H3442       H  0.64233716  0.89863246  0.00042685     0.16400
H3443       H  0.72838329  0.96015037  0.54117936     0.16300
C3444       C  0.85790134  0.99230569  0.51501587     0.30200
C3445       C  0.83714402  0.53730673  0.97231516     0.30200
C3446       C  0.86997008  0.98943687  0.48082336    -0.06000
C3447       C  0.81966272  0.99624987  0.50883540    -0.06800
C3448       C  0.86512655  0.52722376  0.52357738    -0.06700
C3449       C  0.85786052  0.01060044  0.95803441    -0.06000
C3450       C  0.80972575  0.51792478  0.98650632    -0.06800
C3451       C  0.85603258  0.55062680  0.50145799    -0.06700
C3452       C  0.85623247  0.99586726  0.92906317    -0.32000
N3453       N  0.86599313  0.96571329  0.93256692     0.14500
C3454       C  0.87304315  0.96031098  0.96321162    -0.32100
H3455       H  0.87732820  0.93697218  0.97291368     0.16400
C3456       C  0.77711935  0.52018283  0.98317428    -0.31000
N3457       N  0.76355340  0.50179032  0.50301204     0.13200
C3458       C  0.78903289  0.98532163  0.51865221    -0.31000
C3459       C  0.85495214  0.57874475  0.51730443    -0.31300
N3460       N  0.86256772  0.57325722  0.54754042     0.13700
H3461       H  0.84616069  0.60133973  0.50902530     0.16300
C3462       C  0.86776126  0.54214982  0.55228493    -0.31300
H3463       H  0.87121629  0.53120210  0.57528792     0.16300
H3464       H  0.78514719  0.96694842  0.53629334     0.16300
H3465       H  0.84486015  0.00505316  0.90792559     0.16400
H3466       H  0.76485344  0.53689781  0.96803885     0.16300
C3467       C  0.98893016  0.98727513  0.64300671     0.30200
C3468       C  0.53316566  0.53334599  0.66259989     0.30200
C3469       C  0.98542242  0.52169755  0.63134190    -0.06000
C3470       C  0.99234426  0.99413873  0.68106556    -0.06800
C3471       C  0.02352119  0.98110463  0.63480290    -0.06700
C3472       C  0.00768584  0.54448252  0.64100590    -0.06000
C3473       C  0.51465729  0.51865948  0.69050684    -0.06800
C3474       C  0.54606463  0.00481354  0.64502037    -0.06700
C3475       C  0.99247283  0.57311917  0.63981442    -0.32000
N3476       N  0.96305158  0.56854913  0.62886526     0.14500
C3477       C  0.95828988  0.53767264  0.62353346    -0.32100
H3478       H  0.93518051  0.52751542  0.61918375     0.16400
C3479       C  0.51682503  0.52232694  0.72314307    -0.31000
N3480       N  0.99698982  0.50169706  0.73797227     0.13200
C3481       C  0.98170666  0.98404926  0.71169276    -0.31000
C3482       C  0.57490777  0.99023793  0.64628798    -0.31300
N3483       N  0.57046884  0.95963243  0.63917462     0.13700
H3484       H  0.59691461  0.99993617  0.65514695     0.16300
C3485       C  0.53955088  0.95375333  0.63410517    -0.31300
H3486       H  0.52948717  0.93036722  0.63114469     0.16300
H3487       H  0.96412211  0.96562039  0.71564546     0.16300
H3488       H  0.99996659  0.59502223  0.65059002     0.16400
H3489       H  0.53288166  0.53804682  0.73516250     0.16300
C3490       C  0.50166399  0.51143274  0.86504998     0.30200
C3491       C  0.95512722  0.96603028  0.84450869     0.30200
C3492       C  0.96830876  0.51780652  0.87369942    -0.06000
C3493       C  0.49765408  0.50523882  0.82683957    -0.06800
C3494       C  0.50318337  0.97743643  0.87807176    -0.06700
C3495       C  0.94485067  0.49619149  0.86444118    -0.06000
C3496       C  0.97441132  0.98026783  0.81694762    -0.06800
C3497       C  0.47985385  0.95540937  0.86832883    -0.06700
C3498       C  0.91666237  0.51228381  0.86419551    -0.32000
N3499       N  0.92226907  0.54216683  0.87294957     0.14500
C3500       C  0.95345148  0.54642288  0.87798945    -0.32100
H3501       H  0.96426309  0.56913028  0.88268689     0.16400
C3502       C  0.97217652  0.97715605  0.78429259    -0.31000
N3503       N  0.99357490  0.99661572  0.77002024     0.13200
C3504       C  0.50858266  0.51482802  0.79609866    -0.31000
C3505       C  0.49454560  0.92636490  0.86776869    -0.31300
N3506       N  0.52464327  0.93006007  0.87778440     0.13700
H3507       H  0.48560455  0.90515420  0.85665332     0.16300
C3508       C  0.53014784  0.96063963  0.88381097    -0.31300
H3509       H  0.55370000  0.97031597  0.88673581     0.16300
H3510       H  0.52702584  0.53246168  0.79203689     0.16300
H3511       H  0.89388192  0.50441652  0.85546660     0.16400
H3512       H  0.95559796  0.96224218  0.77204346     0.16300
O3513       O  0.81840997  0.89470034  0.88693303    -0.85200
O3514       O  0.84745045  0.83830336  0.87288391    -0.82200
C3515       C  0.86773926  0.81899196  0.86281127     0.98300
O3516       O  0.89501764  0.82878798  0.85409202    -0.82200
O3517       O  0.88844355  0.86681389  0.80199135    -0.84900
C3518       C  0.87762924  0.88911682  0.78541578     1.02800
O3519       O  0.86930056  0.91490923  0.79756753    -0.77600
O3520       O  0.81788808  0.90424724  0.83655695    -0.77800
C3521       C  0.80373512  0.89439047  0.86098211     1.02800
O3522       O  0.87482646  0.91452425  0.91665120    -0.85100
O3523       O  0.89946272  0.85574753  0.91117853    -0.82200
C3524       C  0.92727098  0.86525479  0.90671029     0.98300
O3525       O  0.93510048  0.87782504  0.88098056    -0.82200
O3526       O  0.93280449  0.91413452  0.82810821    -0.84800
C3527       C  0.92791996  0.94195416  0.83848792     1.02800
O3528       O  0.90028734  0.94956478  0.84664437    -0.77700
O3529       O  0.84916365  0.94591160  0.88374435    -0.77800
C3530       C  0.86360257  0.94126920  0.90979799     1.02800
Cr3531     Cr  0.86101120  0.87682425  0.89436520     1.93700
Cr3532     Cr  0.91039883  0.87316345  0.84223860     1.93200
Cr3533     Cr  0.86005784  0.92617718  0.84200537     1.39100
O3534       O  0.87729692  0.89193849  0.85909386    -1.22900
O3535       O  0.86416190  0.64438097  0.84296806    -0.85200
O3536       O  0.87687042  0.67485301  0.89872588    -0.82200
C3537       C  0.85041502  0.68852101  0.89822361     0.98300
O3538       O  0.82648836  0.67392225  0.90885974    -0.82200
O3539       O  0.78894636  0.62114823  0.91990719    -0.84900
C3540       C  0.77700221  0.61327649  0.89370871     1.02800
O3541       O  0.79393305  0.60319732  0.87162697    -0.77600
O3542       O  0.84735633  0.59562901  0.83576786    -0.77800
C3543       C  0.85602448  0.62252439  0.82465578     1.02800
O3544       O  0.90290557  0.59269580  0.86421119    -0.85100
O3545       O  0.90760303  0.62000438  0.92092044    -0.82200
C3546       C  0.90087426  0.63174942  0.94720077     0.98300
O3547       O  0.87450658  0.64534946  0.95151001    -0.82200
O3548       O  0.83930328  0.59229289  0.95548460    -0.84800
C3549       C  0.83057028  0.56466321  0.94832417     1.02800
O3550       O  0.81885405  0.56003816  0.92092191    -0.77700
O3551       O  0.87254696  0.55760573  0.88727808    -0.77800
C3552       C  0.89844314  0.56526530  0.87514825     1.02800
Cr3553     Cr  0.88538032  0.63204489  0.88264281     1.93700
Cr3554     Cr  0.83311738  0.63230916  0.93164974     1.93200
Cr3555     Cr  0.83397340  0.58157414  0.87995428     1.39100
O3556       O  0.85038012  0.61533830  0.89790447    -1.22900
O3557       O  0.55527949  0.64487848  0.91985253    -0.85200
O3558       O  0.56546595  0.61157936  0.86752520    -0.82200
C3559       C  0.57694054  0.59061401  0.85028860     0.98300
O3560       O  0.57783130  0.56229846  0.85982276    -0.82200
O3561       O  0.63120442  0.56691831  0.89250047    -0.84900
C3562       C  0.64941214  0.57978537  0.91185815     1.02800
O3563       O  0.64060998  0.58555316  0.93961128    -0.77600
O3564       O  0.60479021  0.63730631  0.93089464    -0.77800
C3565       C  0.58307796  0.65474092  0.92025577     1.02800
O3566       O  0.51757030  0.60237060  0.94851255    -0.85100
O3567       O  0.52053448  0.56398530  0.88553406    -0.82200
C3568       C  0.52544653  0.53410168  0.88479374     0.98300
O3569       O  0.54815482  0.52345842  0.90261067    -0.82200
O3570       O  0.61162279  0.52519351  0.94184965    -0.84800
C3571       C  0.61594858  0.53178332  0.97130174     1.02800
O3572       O  0.60114424  0.55643465  0.98182761    -0.77700
O3573       O  0.55864026  0.61774917  0.97699985    -0.77800
C3574       C  0.52848741  0.61907003  0.97177454     1.02800
Cr3575     Cr  0.54226929  0.60240391  0.90709632     1.93700
Cr3576     Cr  0.59044698  0.54689884  0.90234182     1.93200
Cr3577     Cr  0.59814585  0.59748598  0.95515447     1.39100
O3578       O  0.57571240  0.58078534  0.92314561    -1.22900
O3579       O  0.65344779  0.87422610  0.85928332    -0.85200
O3580       O  0.59723662  0.88976233  0.83033347    -0.82200
C3581       C  0.59846371  0.86439723  0.81543706     0.98300
O3582       O  0.58861786  0.83914675  0.82865441    -0.82200
O3583       O  0.57760169  0.79749352  0.87912155    -0.84900
C3584       C  0.60277414  0.78381433  0.88783603     1.02800
O3585       O  0.62562581  0.79943641  0.89849468    -0.77600
O3586       O  0.66259298  0.85201160  0.90583107    -0.77800
C3587       C  0.67248338  0.86221337  0.87910174     1.02800
O3588       O  0.63484911  0.90903404  0.91233119    -0.85100
O3589       O  0.57587140  0.91471940  0.88753326    -0.82200
C3590       C  0.54949591  0.90800659  0.87530506     0.98300
O3591       O  0.54577010  0.88303305  0.85948536    -0.82200
O3592       O  0.54228750  0.84494852  0.91010330    -0.84800
C3593       C  0.54996115  0.83572107  0.93753409     1.02800
O3594       O  0.57759523  0.82446251  0.94219836    -0.77700
O3595       O  0.61286517  0.87699721  0.94631713    -0.77800
C3596       C  0.62418510  0.90350370  0.93937381     1.02800
Cr3597     Cr  0.61435875  0.89433303  0.87330831     1.93700
Cr3598     Cr  0.56591420  0.84175057  0.87014368     1.93200
Cr3599     Cr  0.61854400  0.83940424  0.92073211     1.39100
O3600       O  0.59987836  0.85793899  0.88799930    -1.22900
O3601       O  0.60844614  0.82732711  0.61002273    -0.85200
O3602       O  0.62310341  0.85473410  0.66613416    -0.82200
C3603       C  0.63446720  0.87432888  0.68523489     0.98300
O3604       O  0.64500369  0.90121736  0.67548647    -0.82200
O3605       O  0.69776678  0.89588195  0.63915818    -0.84900
C3606       C  0.71350270  0.88609803  0.61630781     1.02800
O3607       O  0.70035504  0.87635703  0.59133866    -0.77600
O3608       O  0.65916222  0.82498826  0.60255869    -0.77800
C3609       C  0.63377274  0.81177808  0.61179332     1.02800
O3610       O  0.58224019  0.88544437  0.58905630    -0.85100
O3611       O  0.58900402  0.90926400  0.64839150    -0.82200
C3612       C  0.59441697  0.93670034  0.63825561     0.98300
O3613       O  0.62046463  0.94368970  0.62632066    -0.82200
O3614       O  0.67277658  0.93953261  0.59101637    -0.84800
C3615       C  0.66155885  0.93498495  0.56335779     1.02800
O3616       O  0.65238170  0.90755215  0.55600192    -0.77700
O3617       O  0.61398692  0.85728988  0.55947508    -0.77800
C3618       C  0.58877566  0.87315479  0.56287190     1.02800
Cr3619     Cr  0.60319347  0.87020048  0.62741791     1.93700
Cr3620     Cr  0.65784358  0.91763566  0.63193305     1.93200
Cr3621     Cr  0.65585674  0.86725367  0.57968559     1.39100
O3622       O  0.63957874  0.88500916  0.61328188    -1.22900
O3623       O  0.90973858  0.85330704  0.56301841    -0.85200
O3624       O  0.85916538  0.88797606  0.57329839    -0.82200
C3625       C  0.84200944  0.90820571  0.58594073     0.98300
O3626       O  0.85202306  0.93606646  0.58921335    -0.82200
O3627       O  0.88770442  0.92466315  0.64004963    -0.84900
C3628       C  0.90811541  0.91198963  0.65764304     1.02800
O3629       O  0.93620182  0.90982891  0.64855105    -0.77600
O3630       O  0.92537928  0.86063270  0.61147756    -0.77800
C3631       C  0.91305586  0.84333925  0.59081624     1.02800
O3632       O  0.93969255  0.89663413  0.52530873    -0.85100
O3633       O  0.87842152  0.93807621  0.53072455    -0.82200
C3634       C  0.87727924  0.96773715  0.53756150     0.98300
O3635       O  0.89413977  0.97695290  0.56145216    -0.82200
O3636       O  0.93532218  0.96985192  0.62268328    -0.84800
C3637       C  0.96523573  0.96395654  0.62380818     1.02800
O3638       O  0.97528034  0.94069311  0.60682147    -0.77700
O3639       O  0.96949570  0.88015503  0.56499013    -0.77800
C3640       C  0.96302177  0.87930730  0.53531297     1.02800
Cr3641     Cr  0.89871956  0.89717139  0.55053840     1.93700
Cr3642     Cr  0.89530894  0.94960513  0.60154090     1.93200
Cr3643     Cr  0.94916839  0.89985715  0.60482198     1.39100
O3644       O  0.91597513  0.91712590  0.58409370    -1.22900
O3645       O  0.61453277  0.66739867  0.61981690    -0.85200
O3646       O  0.66686225  0.63330732  0.63521690    -0.82200
C3647       C  0.68465098  0.61244077  0.64710251     0.98300
O3648       O  0.67326248  0.58588410  0.65622253    -0.82200
O3649       O  0.63432928  0.59508955  0.70743194    -0.84900
C3650       C  0.61110732  0.60590773  0.72221262     1.02800
O3651       O  0.58636042  0.61507269  0.70809416    -0.77600
O3652       O  0.59977195  0.66769878  0.66952079    -0.77800
C3653       C  0.61047322  0.68207485  0.64536411     1.02800
O3654       O  0.58930839  0.61242272  0.58972416    -0.85100
O3655       O  0.64533806  0.58244583  0.59790221    -0.82200
C3656       C  0.63309663  0.55572054  0.60264529     0.98300
O3657       O  0.62178702  0.54849743  0.62901673    -0.82200
O3658       O  0.58521467  0.55411246  0.68083023    -0.84800
C3659       C  0.55837567  0.55959374  0.66804456     1.02800
O3660       O  0.55283270  0.58698212  0.65727539    -0.77700
O3661       O  0.56045190  0.64009273  0.62222281    -0.77800
C3662       C  0.56363985  0.62561740  0.59653055     1.02800
Cr3663     Cr  0.62784105  0.62283837  0.61324186     1.93700
Cr3664     Cr  0.62772450  0.57356439  0.66710590     1.93200
Cr3665     Cr  0.57734832  0.62623344  0.66366836     1.39100
O3666       O  0.61138372  0.60779201  0.64856935    -1.22900
O3667       O  0.89319179  0.60915655  0.67937742    -0.85200
O3668       O  0.83702500  0.62735744  0.65140753    -0.82200
C3669       C  0.81771194  0.63873261  0.63154657     0.98300
O3670       O  0.82707784  0.64898930  0.60462562    -0.82200
O3671       O  0.86549260  0.70000951  0.61254174    -0.84900
C3672       C  0.88832598  0.71573307  0.62324970     1.02800
O3673       O  0.91387231  0.70267848  0.63154302    -0.77600
O3674       O  0.90365417  0.65967611  0.68120508    -0.77800
C3675       C  0.89605553  0.63405198  0.69510667     1.02800
O3676       O  0.91175060  0.58418548  0.62069642    -0.85100
O3677       O  0.85296697  0.59230774  0.59746912    -0.82200
C3678       C  0.86386315  0.59718842  0.57037780     0.98300
O3679       O  0.87586095  0.62333602  0.56315600    -0.82200
O3680       O  0.91221034  0.67534675  0.56672194    -0.84800
C3681       C  0.93993343  0.66402469  0.57098344     1.02800
O3682       O  0.94776568  0.65479114  0.59835018    -0.77700
O3683       O  0.94322488  0.61549514  0.64773299    -0.77800
C3684       C  0.93851295  0.59064697  0.63189397     1.02800
Cr3685     Cr  0.87480090  0.60596342  0.63629974     1.93700
Cr3686     Cr  0.87129562  0.66087544  0.58910142     1.93200
Cr3687     Cr  0.92464516  0.65757986  0.63882093     1.39100
O3688       O  0.89007445  0.64203933  0.62145926    -1.22900
C3689       C  0.72877461  0.64995867  0.63760206    -0.12100
C3690       C  0.71915447  0.61942821  0.64751755     0.04900
C3691       C  0.74276771  0.59665413  0.65424702    -0.07400
C3692       C  0.77463073  0.60445234  0.64987959    -0.08100
C3693       C  0.78383497  0.63428479  0.63821875    -0.02700
C3694       C  0.76057458  0.65736475  0.63240560     0.04200
N3695       N  0.76834216  0.68859444  0.62175890     0.66700
H3696       H  0.71153863  0.66818643  0.63272227     0.15600
H3697       H  0.79226588  0.58645344  0.65443825     0.15300
N3698       N  0.73543499  0.56513396  0.66431802     0.74400
O3699       O  0.76469407  0.69519667  0.59279237    -0.39100
O3700       O  0.76724619  0.71079538  0.64151715    -0.39000
O3701       O  0.73814071  0.54310086  0.64452951    -0.39700
O3702       O  0.73801401  0.55846889  0.69338195    -0.39800
C3703       C  0.87802409  0.76078964  0.58959861    -0.12100
C3704       C  0.88760128  0.74985849  0.61944923     0.04900
C3705       C  0.90273489  0.77053786  0.64055300    -0.07400
C3706       C  0.90933783  0.80126284  0.63082334    -0.08100
C3707       C  0.90277843  0.81137049  0.59977130    -0.02700
C3708       C  0.88642404  0.79082598  0.57904076     0.04200
N3709       N  0.88021190  0.79840468  0.54656579     0.66700
H3710       H  0.86705623  0.74482364  0.57293460     0.15600
H3711       H  0.92100489  0.81665638  0.64734729     0.15300
N3712       N  0.91247558  0.76091577  0.67156117     0.74400
O3713       O  0.90012659  0.78971981  0.52624088    -0.39100
O3714       O  0.85177506  0.80153931  0.53786585    -0.39000
O3715       O  0.94140124  0.75477386  0.67614437    -0.39700
O3716       O  0.89607401  0.76980643  0.69474459    -0.39800
C3717       C  0.64802640  0.72423078  0.63128512    -0.12100
C3718       C  0.61880035  0.71600188  0.64496332     0.04900
C3719       C  0.59667049  0.74004092  0.65088672    -0.07400
C3720       C  0.60328452  0.77102131  0.64108450    -0.08100
C3721       C  0.63150928  0.77901046  0.62498450    -0.02700
C3722       C  0.65466435  0.75530008  0.62141059     0.04200
N3723       N  0.68437897  0.76138154  0.60655356     0.66700
H3724       H  0.66523144  0.70599979  0.62661238     0.15600
H3725       H  0.58524004  0.78862225  0.64487952     0.15300
N3726       N  0.56614101  0.73344674  0.66391090     0.74400
O3727       O  0.70855867  0.76430183  0.62397222    -0.39100
O3728       O  0.68807234  0.75249869  0.57837668    -0.39000
O3729       O  0.56107541  0.74092177  0.69228754    -0.39700
O3730       O  0.54280427  0.73137798  0.64524714    -0.39800
C3731       C  0.76474537  0.86491643  0.60255630    -0.12100
C3732       C  0.74766859  0.88910504  0.61655395     0.04900
C3733       C  0.76255139  0.91822671  0.62323889    -0.07400
C3734       C  0.79358986  0.92320729  0.61374263    -0.08100
C3735       C  0.81011554  0.89994372  0.59718846    -0.02700
C3736       C  0.79566238  0.87001165  0.59262697     0.04200
N3737       N  0.81074780  0.84471334  0.57667708     0.66700
H3738       H  0.75334147  0.84257569  0.59740057     0.15600
H3739       H  0.80413417  0.94606560  0.61824035     0.15300
N3740       N  0.74599376  0.94433020  0.63656818     0.74400
O3741       O  0.82153098  0.82226596  0.59339199    -0.39100
O3742       O  0.80171712  0.83890522  0.54880613    -0.39000
O3743       O  0.75274464  0.95215127  0.66455409    -0.39700
O3744       O  0.73497111  0.96517220  0.61800692    -0.39800
C3745       C  0.60636579  0.83946094  0.76356316    -0.12100
C3746       C  0.61146251  0.86533619  0.78315227     0.04900
C3747       C  0.62890445  0.89176060  0.77127211    -0.07400
C3748       C  0.63895220  0.89226275  0.74002393    -0.08100
C3749       C  0.63111346  0.86778962  0.71947378    -0.02700
C3750       C  0.61567798  0.84040360  0.73193806     0.04200
N3751       N  0.60767314  0.81368110  0.71307342     0.66700
H3752       H  0.59383376  0.81885928  0.77232643     0.15600
H3753       H  0.65109539  0.91316648  0.73143315     0.15300
N3754       N  0.63576562  0.91923724  0.78963223     0.74400
O3755       O  0.62394376  0.78884649  0.71654620    -0.39100
O3756       O  0.57937010  0.81104026  0.70365570    -0.39000
O3757       O  0.66393317  0.92346393  0.79883812    -0.39700
O3758       O  0.61836083  0.94324284  0.78580738    -0.39800
C3759       C  0.59448761  0.63002757  0.77124993    -0.12100
C3760       C  0.61056751  0.60542936  0.75650765     0.04900
C3761       C  0.61871452  0.57805469  0.77386824    -0.07400
C3762       C  0.60882841  0.57502371  0.80496585    -0.08100
C3763       C  0.58971543  0.59812091  0.81886884    -0.02700
C3764       C  0.58357019  0.62653108  0.80204852     0.04200
N3765       N  0.56442099  0.65124505  0.81423268     0.66700
H3766       H  0.58805744  0.65103548  0.75793363     0.15600
H3767       H  0.61468226  0.55341439  0.81752953     0.15300
N3768       N  0.63336529  0.55131701  0.75964305     0.74400
O3769       O  0.53568718  0.65210480  0.80579704    -0.39100
O3770       O  0.57800878  0.67686943  0.82142792    -0.39000
O3771       O  0.66193481  0.54557633  0.76644987    -0.39700
O3772       O  0.61586768  0.52873556  0.75080927    -0.39800
C3773       C  0.57452172  0.73426028  0.88000209    -0.12100
C3774       C  0.60276164  0.74904389  0.88926805     0.04900
C3775       C  0.62607980  0.73103813  0.90548710    -0.07400
C3776       C  0.61971335  0.69963722  0.91360301    -0.08100
C3777       C  0.58973706  0.68655972  0.90807905    -0.02700
C3778       C  0.56686955  0.70428771  0.89089917     0.04200
N3779       N  0.53465631  0.69427033  0.88691080     0.66700
H3780       H  0.55635899  0.74718158  0.86728380     0.15600
H3781       H  0.63760881  0.68629351  0.92624644     0.15300
N3782       N  0.65530949  0.74431576  0.91620376     0.74400
O3783       O  0.52559660  0.68554416  0.85991076    -0.39100
O3784       O  0.51415826  0.70527420  0.90546028    -0.39000
O3785       O  0.65828939  0.75021241  0.94530006    -0.39700
O3786       O  0.67994776  0.73913511  0.90026549    -0.39800
C3787       C  0.87979711  0.60101387  0.77697562    -0.12100
C3788       C  0.86342364  0.62605908  0.79072407     0.04900
C3789       C  0.85998417  0.65473579  0.77342116    -0.07400
C3790       C  0.87244230  0.65746606  0.74283296    -0.08100
C3791       C  0.88856140  0.63223308  0.72909141    -0.02700
C3792       C  0.89258446  0.60381312  0.74675781     0.04200
N3793       N  0.91045325  0.57766782  0.73518147     0.66700
H3794       H  0.88399388  0.57944493  0.79029359     0.15600
H3795       H  0.86836814  0.67895933  0.72938118     0.15300
N3796       N  0.84272096  0.68093442  0.78552600     0.74400
O3797       O  0.93875990  0.57458808  0.74449498    -0.39100
O3798       O  0.89559555  0.55330890  0.72631614    -0.39000
O3799       O  0.85806590  0.70513987  0.79394177    -0.39700
O3800       O  0.81424246  0.68428455  0.77688568    -0.39800
C3801       C  0.69151258  0.61888879  0.91450219    -0.12100
C3802       C  0.68081578  0.59019341  0.90208821     0.04900
C3803       C  0.70015644  0.57326368  0.88102468    -0.07400
C3804       C  0.73094725  0.58371437  0.87558079    -0.08100
C3805       C  0.74272004  0.61055003  0.89096933    -0.02700
C3806       C  0.72218423  0.62929288  0.90902722     0.04200
N3807       N  0.73166847  0.65901295  0.92184394     0.66700
H3808       H  0.67617016  0.63312248  0.92899821     0.15600
H3809       H  0.74640151  0.56913445  0.86154591     0.15300
N3810       N  0.69031934  0.54427823  0.86684421     0.74400
O3811       O  0.72439981  0.68379599  0.90661286    -0.39100
O3812       O  0.73597167  0.66091316  0.95133329    -0.39000
O3813       O  0.68314764  0.54471884  0.83782687    -0.39700
O3814       O  0.69980839  0.51859771  0.87905038    -0.39800
C3815       C  0.90890485  0.87530444  0.73969476    -0.12100
C3816       C  0.88032696  0.88717738  0.75121243     0.04900
C3817       C  0.85916253  0.90257714  0.73047430    -0.07400
C3818       C  0.86842567  0.90892734  0.69963170    -0.08100
C3819       C  0.89871271  0.90058365  0.68908001    -0.02700
C3820       C  0.91844807  0.88190272  0.70891993     0.04200
N3821       N  0.94844910  0.86988752  0.69912504     0.66700
H3822       H  0.92521463  0.86307784  0.75531153     0.15600
H3823       H  0.85209067  0.92157764  0.68440174     0.15300
N3824       N  0.82812455  0.91184692  0.73987334     0.74400
O3825       O  0.97311784  0.88489784  0.70699969    -0.39100
O3826       O  0.95071377  0.84052986  0.69433128    -0.39000
O3827       O  0.82283268  0.94089528  0.74407302    -0.39700
O3828       O  0.80521495  0.89415267  0.73228189    -0.39800
C3829       C  0.76169428  0.86544501  0.88890533    -0.12100
C3830       C  0.77064706  0.88231039  0.86149261     0.04900
C3831       C  0.74773535  0.88689584  0.83746188    -0.07400
C3832       C  0.71631170  0.87747804  0.84284800    -0.08100
C3833       C  0.70685648  0.86395959  0.87193712    -0.02700
C3834       C  0.73048625  0.85641513  0.89440201     0.04200
N3835       N  0.72381452  0.84003457  0.92331535     0.66700
H3836       H  0.77893073  0.85968138  0.90701797     0.15600
H3837       H  0.69910394  0.88198112  0.82453770     0.15300
N3838       N  0.75508828  0.90148497  0.80779051     0.74400
O3839       O  0.73063760  0.81099297  0.92511337    -0.39100
O3840       O  0.72290572  0.85581367  0.94851729    -0.39000
O3841       O  0.75671152  0.88400322  0.78379147    -0.39700
O3842       O  0.74812526  0.93029038  0.80379174    -0.39800
C3843       C  0.87526723  0.72935466  0.86500987    -0.12100
C3844       C  0.84980428  0.72110053  0.88486476     0.04900
C3845       C  0.82736619  0.74457503  0.89215932    -0.07400
C3846       C  0.83258023  0.77582487  0.88207568    -0.08100
C3847       C  0.86019776  0.78466492  0.86542313    -0.02700
C3848       C  0.88098435  0.76053392  0.85569255     0.04200
N3849       N  0.90881334  0.76669973  0.83749635     0.66700
H3850       H  0.89206743  0.71164171  0.85765956     0.15600
H3851       H  0.81564856  0.79349937  0.88916279     0.15300
N3852       N  0.80007859  0.73816601  0.91102269     0.74400
O3853       O  0.93514676  0.76741174  0.85176694    -0.39100
O3854       O  0.90846534  0.75933047  0.80861633    -0.39600
O3855       O  0.80019532  0.74739164  0.93935083    -0.39700
O3856       O  0.77375666  0.73512770  0.89707395    -0.39800
loop_ 
_geom_bond_atom_site_label_1 
_geom_bond_atom_site_label_2 
_geom_bond_distance 
_geom_bond_site_symmetry_2 
_ccdc_geom_bond_type 
C1            C4   1.534       .  S
C1          C307   1.551       .  S
C1          C485   1.528       .  S
C1         C1933   1.529       .  S
C2            C7   1.651       .  S
C2          C200   1.626       .  S
C2         C1934   1.527   1_455  S
C2          C490   1.522       .  S
C3          C483   1.525       .  S
C3           C11   1.375       .  A
C3            C6   1.415       .  A
C4           C15   1.391       .  A
C4         C2417   1.425       .  A
C5         C1929   1.529       .  S
C5           C19   1.371   1_655  A
C5            C8   1.402   1_655  A
C6         C1930   1.529       .  S
C6            C9   1.361       .  A
C7           C13   1.434       .  A
C7         C2414   1.426   1_455  A
C8          C484   1.522   1_554  S
C8           C16   1.370       .  A
C9           N10   1.344       .  A
C9           H22   1.082       .  S
N10          C11   1.345       .  A
N10         C172   1.410       .  S
C11          H12   1.081       .  S
C13        N2424   1.395   1_455  A
C13          H23   1.103       .  S
N14          C15   1.361       .  A
N14        C2423   1.395   1_554  A
N14          N37   1.455       .  S
C15          H21   1.057       .  S
C16          N17   1.339       .  A
C16          H18   1.079       .  S
N17          C19   1.342       .  A
N17         C288   1.406       .  S
C19          H20   1.080       .  S
C24          C27   1.536       .  S
C24         C219   1.553       .  S
C24        C1954   1.533   1_455  S
C24         C510   1.525       .  S
C25          C29   1.519   1_554  S
C25          C31   1.531       .  S
C25          C30   1.651       .  S
C25         C266   1.617       .  S
C26        C1952   1.532       .  S
C26          C34   1.372       .  A
C26         C511   1.401       .  A
C27          C38   1.391       .  A
C27        C2440   1.426   1_455  A
C28         C506   1.528       .  S
C28          C42   1.381   1_556  A
C28        C1959   1.411   1_556  A
C29         C508   1.402       .  A
C29         C514   1.375       .  A
C30          C36   1.435       .  A
C30        C2437   1.425   1_554  A
C31        C1956   1.411   1_554  A
C31        C1967   1.368       .  A
C32         C511   1.376       .  A
C32          N33   1.346       .  A
C32          H45   1.082       .  S
N33          C34   1.340       .  A
N33         C150   1.408       .  S
C34          H35   1.080       .  S
C36          N37   1.396       .  A
C36          H46   1.099       .  S
N37        C2448   1.360   1_554  A
C38        N2447   1.361       .  A
C38          H44   1.060       .  S
C39        C1959   1.370       .  A
C39          N40   1.342       .  A
C39          H41   1.080       .  S
N40          C42   1.348       .  A
N40         C244   1.419       .  S
C42          H43   1.081   1_554  S
C47          C50   1.641       .  S
C47         C197   1.632       .  S
C47        C1013   1.535   1_545  S
C47         C533   1.536       .  S
C48          C53   1.542       .  S
C48         C241   1.555       .  S
C48         C534   1.523       .  S
C48        C1018   1.521       .  S
C49        C1011   1.533       .  S
C49          C57   1.381       .  A
C49          C52   1.410       .  A
C50          C61   1.430       .  A
C50        C1499   1.426   1_545  A
C51         C529   1.536   1_554  S
C51          C65   1.377       .  A
C51          C54   1.416   1_545  A
C52         C530   1.528       .  S
C52          C55   1.373       .  A
C53          C59   1.390       .  A
C53        C1496   1.427   1_554  A
C54        C1012   1.522       .  S
C54          C62   1.373       .  A
C55          N56   1.333       .  A
C55          H68   1.079       .  S
N56          C57   1.343       .  A
N56         C222   1.406       .  S
C57          H58   1.081       .  S
C59          N60   1.358       .  A
C59          H69   1.078       .  S
N60        C1507   1.396   1_554  A
N60        N1047   1.452       .  S
C61        N1506   1.397   1_545  A
C61          H67   1.085       .  S
C62          N63   1.340   1_565  A
C62          H64   1.080       .  S
N63          C65   1.345       .  A
N63         C282   1.413       .  S
C65          H66   1.082       .  S
C70          C72   1.537   1_554  S
C70          C73   1.641       .  S
C70         C260   1.620       .  S
C70        C1038   1.523       .  S
C71          C76   1.535       .  S
C71         C175   1.555       .  S
C71        C1039   1.523       .  S
C71         C559   1.531       .  S
C72         C562   1.368       .  A
C72         C557   1.415       .  A
C73          C84   1.432       .  A
C73        C1522   1.425   1_554  A
C74        C1034   1.525   1_545  S
C74          C88   1.378       .  A
C74          C77   1.401       .  A
C75        C1035   1.523       .  S
C75          C78   1.375       .  A
C75         C554   1.418       .  A
C76          C82   1.386       .  A
C76        C1519   1.425   1_545  A
C77         C553   1.529   1_554  S
C77          C85   1.370       .  A
C78          N79   1.345       .  A
C78          H91   1.081       .  S
N79          C80   1.342       .  A
N79         C156   1.414       .  S
C80         C554   1.368       .  A
C80          H81   1.081       .  S
C82         N565   1.355       .  A
C82          H92   1.079       .  S
N83         C564   1.355   1_564  A
N83        C1048   1.398       .  A
N83        N1024   1.451       .  S
C84        N1047   1.397       .  A
C84          H90   1.083       .  S
C85          N86   1.335       .  A
C85          H87   1.081       .  S
N86          C88   1.347       .  A
N86         C304   1.406       .  S
C88          H89   1.081       .  S
C93          C97   1.530       .  S
C93          C96   1.650       .  S
C93         C263   1.627       .  S
C93        C1059   1.530       .  S
C94          C99   1.534       .  S
C94         C285   1.545       .  S
C94        C2026   1.524       .  S
C94        C1064   1.520       .  S
C95        C1057   1.529   1_545  S
C95         C103   1.369       .  A
C95          C98   1.407       .  A
C96         C107   1.436       .  A
C96        C2991   1.425       .  A
C97        C2039   1.372       .  A
C97        C2028   1.409       .  A
C98        C2022   1.524       .  S
C98         C101   1.372       .  A
C99         C105   1.390       .  A
C99        C2988   1.426   1_445  A
C100       C1058   1.522       .  S
C100        C108   1.369       .  A
C100       C2025   1.411       .  A
C101        N102   1.336       .  A
C101        H114   1.081       .  S
N102        C103   1.341       .  A
N102        C310   1.404       .  S
C103        H104   1.079       .  S
C105       N2034   1.355   1_445  A
C105        H115   1.077       .  S
N106       C2033   1.354       .  A
N106       C1071   1.401   1_545  A
N106       N1093   1.455   1_545  S
C107       N1070   1.399       .  A
C107        H113   1.085       .  S
C108        N109   1.344       .  A
C108        H110   1.079       .  S
N109        C111   1.343       .  A
N109        C238   1.406       .  S
C111       C2025   1.368       .  A
C111        H112   1.082       .  S
C116        C119   1.655       .  S
C116        C194   1.626       .  S
C116       C2046   1.525   1_455  S
C116       C1084   1.528   1_545  S
C117        C122   1.536       .  S
C117        C153   1.548       .  S
C117       C1085   1.532       .  S
C117       C2051   1.521       .  S
C118       C2044   1.524       .  S
C118        C126   1.376       .  A
C118        C121   1.402   1_545  A
C119        C130   1.440       .  A
C119       C3014   1.426   1_445  A
C120       C1080   1.528       .  S
C120        C134   1.362       .  A
C120        C123   1.412   1_455  A
C121       C1081   1.530       .  S
C121        C124   1.370   1_565  A
C122        C128   1.389       .  A
C122       C3011   1.426       .  A
C123       C2045   1.521       .  S
C123        C131   1.376       .  A
C124        N125   1.339       .  A
C124        H137   1.080       .  S
N125        C126   1.344       .  A
N125        C178   1.406       .  S
C126        H127   1.081       .  S
C128        N129   1.356       .  A
C128        H138   1.075       .  S
N129       C3022   1.399       .  A
N129       N1070   1.454       .  S
C130       N3021   1.401   1_445  A
C130        H136   1.088       .  S
C131        N132   1.345   1_655  A
C131        H133   1.081       .  S
N132        C134   1.338       .  A
N132        C216   1.408       .  S
C134        H135   1.081       .  S
O139       Cr157   1.976       .  S
O139        C147   1.259       .  A
O140       Cr157   1.957       .  S
O140        C141   1.261       .  A
C141        O142   1.276       .  A
C141        C473   1.487       .  S
O142       Cr158   2.037       .  S
O143       Cr158   1.958       .  S
O143        C144   1.257       .  A
C144        O145   1.257       .  A
C144        C442   1.453       .  S
O145       Cr159   1.971       .  S
O146       Cr159   2.001       .  S
O146        C147   1.260       .  A
C147        C456   1.472       .  S
O148       Cr157   1.943       .  S
O148        C156   1.255       .  A
O149       Cr157   1.978       .  S
O149        C150   1.254       .  A
C150        O151   1.252       .  A
O151       Cr158   1.949       .  S
O152       Cr158   2.057       .  S
O152        C153   1.276       .  A
C153        O154   1.257       .  A
O154       Cr159   1.959       .  S
O155       Cr159   1.994       .  S
O155        C156   1.265       .  A
Cr157       O160   1.759       .  S
Cr158       O160   1.761       .  S
Cr159       O160   1.768       .  S
O161       Cr179   1.946       .  S
O161        C169   1.252       .  A
O162       Cr179   1.971       .  S
O162        C163   1.258       .  A
C163        O164   1.264       .  A
C163        C470   1.489       .  S
O164       Cr180   2.024       .  S
O165       Cr180   1.975       .  S
O165        C166   1.259       .  A
C166        O167   1.254       .  A
C166        C431   1.452       .  S
O167       Cr181   1.950       .  S
O168       Cr181   2.035       .  S
O168        C169   1.282       .  A
C169        C414   1.480       .  S
O170       Cr179   1.985       .  S
O170        C178   1.256       .  A
O171       Cr179   1.922       .  S
O171        C172   1.252       .  A
C172        O173   1.268       .  A
O173       Cr180   2.009       .  S
O174       Cr180   1.973       .  S
O174        C175   1.261       .  A
C175        O176   1.275       .  A
O176       Cr181   2.054       .  S
O177       Cr181   1.941       .  S
O177        C178   1.248       .  A
Cr179       O182   1.755       .  S
Cr180       O182   1.760       .  S
Cr181       O182   1.756       .  S
O183       Cr201   1.960       .  S
O183        C191   1.246       .  A
O184       Cr201   1.979       .  S
O184        C185   1.253       .  A
C185        O186   1.258       .  A
C185        C389   1.466       .  S
O186       Cr202   1.973       .  S
O187       Cr202   1.955       .  S
O187        C188   1.246       .  A
C188        O189   1.256       .  A
C188        C428   1.450       .  S
O189       Cr203   1.974       .  S
O190       Cr203   1.985       .  S
O190        C191   1.256       .  A
C191        C403   1.467       .  S
O192       Cr201   2.046       .  S
O192        C200   1.298       .  A
O193       Cr201   2.087       .  S
O193        C194   1.283       .  A
C194        O195   1.296       .  A
O195       Cr202   2.037       .  S
O196       Cr202   2.092       .  S
O196        C197   1.289       .  A
C197        O198   1.297       .  A
O198       Cr203   2.058       .  S
O199       Cr203   2.094       .  S
O199        C200   1.290       .  A
Cr201       O204   1.805       .  S
Cr202       O204   1.799       .  S
Cr203       O204   1.799       .  S
O205       Cr223   1.940       .  S
O205        C213   1.259       .  A
O206       Cr223   1.966       .  S
O206        C207   1.249       .  A
C207        O208   1.269       .  A
C207        C372   1.475       .  S
O208       Cr224   2.005       .  S
O209       Cr224   1.969       .  S
O209        C210   1.263       .  A
C210        O211   1.252       .  A
C210        C400   1.474       .  S
O211       Cr225   1.969       .  S
O212       Cr225   2.043       .  S
O212        C213   1.278       .  A
C213        C459   1.481       .  S
O214       Cr223   1.966       .  S
O214        C222   1.250       .  A
O215       Cr223   1.935       .  S
O215        C216   1.256       .  A
C216        O217   1.263       .  A
O217       Cr224   1.993       .  S
O218       Cr224   1.971       .  S
O218        C219   1.261       .  A
C219        O220   1.277       .  A
O220       Cr225   2.057       .  S
O221       Cr225   1.944       .  S
O221        C222   1.248       .  A
Cr223       O226   1.760       .  S
Cr224       O226   1.754       .  S
Cr225       O226   1.769       .  S
O227       Cr245   1.977       .  S
O227        C235   1.259       .  A
O228       Cr245   1.949       .  S
O228        C229   1.254       .  A
C229        O230   1.280       .  A
C229        C375   1.478       .  S
O230       Cr246   2.029       .  S
O231       Cr246   1.941       .  S
O231        C232   1.248       .  A
C232        O233   1.263       .  A
C232        C358   1.448       .  S
O233       Cr247   1.980       .  S
O234       Cr247   2.023       .  S
O234        C235   1.268       .  A
C235        C347   1.489       .  S
O236       Cr245   1.947       .  S
O236        C244   1.258       .  A
O237       Cr245   1.981       .  S
O237        C238   1.255       .  A
C238        O239   1.245       .  A
O239       Cr246   1.940       .  S
O240       Cr246   2.051       .  S
O240        C241   1.273       .  A
C241        O242   1.262       .  A
O242       Cr247   1.976       .  S
O243       Cr247   2.006       .  S
O243        C244   1.267       .  A
Cr245       O248   1.759       .  S
Cr246       O248   1.768       .  S
Cr247       O248   1.757       .  S
O249       Cr267   1.975       .  S
O249        C257   1.250       .  A
O250       Cr267   1.955       .  S
O250        C251   1.245       .  A
C251        O252   1.258       .  A
C251        C361   1.465       .  S
O252       Cr268   1.983       .  S
O253       Cr268   1.956       .  S
O253        C254   1.252       .  A
C254        O255   1.251       .  A
C254        C445   1.461       .  S
O255       Cr269   1.978       .  S
O256       Cr269   1.955       .  S
O256        C257   1.254       .  A
C257        C333   1.463       .  S
O258       Cr267   2.031       .  S
O258        C266   1.296       .  A
O259       Cr267   2.090       .  S
O259        C260   1.287       .  A
C260        O261   1.294       .  A
O261       Cr268   2.041       .  S
O262       Cr268   2.096       .  S
O262        C263   1.289       .  A
C263        O264   1.296       .  A
O264       Cr269   2.048       .  S
O265       Cr269   2.080       .  S
O265        C266   1.285       .  A
Cr267       O270   1.805       .  S
Cr268       O270   1.796       .  S
Cr269       O270   1.798       .  S
O271       Cr289   1.987       .  S
O271        C279   1.262       .  A
O272       Cr289   1.927       .  S
O272        C273   1.256       .  A
C273        O274   1.277       .  A
C273        C316   1.479       .  S
O274       Cr290   2.046       .  S
O275       Cr290   1.959       .  S
O275        C276   1.253       .  A
C276        O277   1.260       .  A
C276        C386   1.451       .  S
O277       Cr291   1.965       .  S
O278       Cr291   2.006       .  S
O278        C279   1.267       .  A
C279        C344   1.476       .  S
O280       Cr289   1.948       .  S
O280        C288   1.254       .  A
O281       Cr289   1.978       .  S
O281        C282   1.254       .  A
C282        O283   1.248       .  A
O283       Cr290   1.949       .  S
O284       Cr290   2.051       .  S
O284        C285   1.275       .  A
C285        O286   1.260       .  A
O286       Cr291   1.965       .  S
O287       Cr291   1.974       .  S
O287        C288   1.259       .  A
Cr289       O292   1.758       .  S
Cr290       O292   1.777       .  S
Cr291       O292   1.758       .  S
O293       Cr311   1.964       .  S
O293        C301   1.249       .  A
O294       Cr311   1.943       .  S
O294        C295   1.258       .  A
C295        O296   1.275       .  A
C295        C319   1.472       .  S
O296       Cr312   2.033       .  S
O297       Cr312   1.954       .  S
O297        C298   1.255       .  A
C298        O299   1.259       .  A
C298        C330   1.447       .  S
O299       Cr313   1.977       .  S
O300       Cr313   2.011       .  S
O300        C301   1.268       .  A
C301        C417   1.478       .  S
O302       Cr311   1.928       .  S
O302        C310   1.252       .  A
O303       Cr311   1.968       .  S
O303        C304   1.251       .  A
C304        O305   1.251       .  A
O305       Cr312   1.951       .  S
O306       Cr312   2.047       .  S
O306        C307   1.273       .  A
C307        O308   1.263       .  A
O308       Cr313   1.979       .  S
O309       Cr313   1.987       .  S
O309        C310   1.267       .  A
Cr311       O314   1.760       .  S
Cr312       O314   1.760       .  S
Cr313       O314   1.758       .  S
C315        C316   1.410       .  A
C315        C320   1.389       .  A
C315        H322   1.080       .  S
C316        C317   1.409       .  A
C317        C318   1.395       .  A
C317        N324   1.427       .  S
C318        C319   1.408       .  A
C318        H323   1.077       .  S
C319        C320   1.405       .  A
C320        N321   1.428       .  S
N321        O325   1.262       .  A
N321        O326   1.262       .  A
N324        O328   1.262       .  A
N324        O327   1.262       .  A
C329        C330   1.398       .  A
C329        C334   1.387       .  A
C329        H336   1.081       .  S
C330        C331   1.404       .  A
C331        C332   1.384       .  A
C331        N338   1.428       .  S
C332        C333   1.400       .  A
C332        H337   1.069       .  S
C333        C334   1.415       .  A
C334        N335   1.429       .  S
N335        O339   1.262       .  A
N335        O340   1.261       .  A
N338        O342   1.262       .  A
N338        O341   1.262       .  A
C343        C344   1.406       .  A
C343        C348   1.401       .  A
C343        H350   1.080       .  S
C344        C345   1.405       .  A
C345        C346   1.397       .  A
C345        N352   1.428       .  S
C346        C347   1.411       .  A
C346        H351   1.078       .  S
C347        C348   1.410       .  A
C348        N349   1.426       .  S
N349        O353   1.262       .  A
N349        O354   1.262       .  A
N352        O356   1.262       .  A
N352        O355   1.262       .  A
C357        C358   1.391       .  A
C357        C362   1.386       .  A
C357        H364   1.081       .  S
C358        C359   1.411       .  A
C359        C360   1.386       .  A
C359        N366   1.428       .  S
C360        C361   1.399       .  A
C360        H365   1.080       .  S
C361        C362   1.416       .  A
C362        N363   1.424       .  S
N363        O367   1.262       .  A
N363        O368   1.262       .  A
N366        O370   1.262       .  A
N366        O369   1.262       .  A
C371        C372   1.393       .  A
C371        C376   1.395       .  A
C371        H378   1.080       .  S
C372        C373   1.424       .  A
C373        C374   1.389       .  A
C373        N380   1.430       .  S
C374        C375   1.395       .  A
C374        H379   1.080       .  S
C375        C376   1.421       .  A
C376        N377   1.426       .  S
N377        O381   1.262       .  A
N377        O382   1.262       .  A
N380        O384   1.262       .  A
N380        O383   1.262       .  A
C385        C386   1.396       .  A
C385        C390   1.388       .  A
C385        H392   1.081       .  S
C386        C387   1.407       .  A
C387        C388   1.386       .  A
C387        N394   1.428       .  S
C388        C389   1.403       .  A
C388        H393   1.080       .  S
C389        C390   1.411       .  A
C390        N391   1.423       .  S
N391        O395   1.263       .  A
N391        O396   1.262       .  A
N394        O398   1.262       .  A
N394        O397   1.262       .  A
C399        C400   1.399       .  A
C399        C404   1.380       .  A
C399        H406   1.081       .  S
C400        C401   1.417       .  A
C401        C402   1.398       .  A
C401        N408   1.427       .  S
C402        C403   1.401       .  A
C402        H407   1.080       .  S
C403        C404   1.416       .  A
C404        N405   1.431       .  S
N405        O409   1.260       .  A
N405        O410   1.262       .  A
N408        O412   1.262       .  A
N408        O411   1.262       .  A
C413        C414   1.393       .  A
C413        C418   1.387       .  A
C413        H420   1.080       .  S
C414        C415   1.424       .  A
C415        C416   1.399       .  A
C415        N422   1.428       .  S
C416        C417   1.396       .  A
C416        H421   1.080       .  S
C417        C418   1.423       .  A
C418        N419   1.429       .  S
N419        O423   1.262       .  A
N419        O424   1.262       .  A
N422        O426   1.262       .  A
N422        O425   1.262       .  A
C427        C428   1.397       .  A
C427        C432   1.381       .  A
C427        H434   1.081       .  S
C428        C429   1.410       .  A
C429        C430   1.389       .  A
C429        N436   1.428       .  S
C430        C431   1.401       .  A
C430        H435   1.080       .  S
C431        C432   1.407       .  A
C432        N433   1.427       .  S
N433        O437   1.261       .  A
N433        O438   1.262       .  A
N436        O440   1.262       .  A
N436        O439   1.262       .  A
C441        C442   1.396       .  A
C441        C446   1.387       .  A
C441        H448   1.081       .  S
C442        C443   1.408       .  A
C443        C444   1.386       .  A
C443        N450   1.428       .  S
C444        C445   1.401       .  A
C444        H449   1.080       .  S
C445        C446   1.414       .  A
C446        N447   1.428       .  S
N447        O451   1.262       .  A
N447        O452   1.261       .  A
N450        O454   1.262       .  A
N450        O453   1.262       .  A
C455        C456   1.404       .  A
C455        C460   1.390       .  A
C455        H462   1.081       .  S
C456        C457   1.407       .  A
C457        C458   1.397       .  A
C457        N464   1.428       .  S
C458        C459   1.412       .  A
C458        H463   1.075       .  S
C459        C460   1.408       .  A
C460        N461   1.426       .  S
N461        O465   1.262       .  A
N461        O466   1.262       .  A
N464        O468   1.262       .  A
N464        O467   1.262       .  A
C469        C470   1.407       .  A
C469        C474   1.387       .  A
C469        H476   1.080       .  S
C470        C471   1.413       .  A
C471        C472   1.406       .  A
C471        N478   1.427       .  S
C472        C473   1.412       .  A
C472        H477   1.079       .  S
C473        C474   1.410       .  A
C474        N475   1.428       .  S
N475        O479   1.262       .  A
N475        O480   1.262       .  A
N478        O482   1.262       .  A
N478        O481   1.262       .  A
C483       C2415   1.532       .  S
C483        C486   1.538       .  S
C483        C789   1.560       .  S
C484       C2416   1.525   1_455  S
C484        C489   1.654   1_556  S
C484        C682   1.624       .  S
C485        C493   1.378       .  A
C485        C488   1.415   1_554  A
C486        C497   1.392       .  A
C486       C1935   1.426       .  A
C487       C2411   1.532       .  S
C487        C501   1.372   1_655  A
C487        C490   1.403   1_655  A
C488       C2412   1.528       .  S
C488        C491   1.361       .  A
C489       C1932   1.424   1_455  A
C489        C495   1.437   1_554  A
C490        C498   1.371       .  A
C491        N492   1.342       .  A
C491        H504   1.082       .  S
N492        C493   1.346   1_556  A
N492        C654   1.411       .  S
C493        H494   1.081       .  S
C495       N1942   1.396   1_456  A
C495        H505   1.103       .  S
N496       C1941   1.393       .  A
N496        C497   1.363       .  A
N496        N519   1.454       .  S
C497        H503   1.056       .  S
C498        N499   1.340       .  A
C498        H500   1.079       .  S
N499        C501   1.343       .  A
N499        C770   1.408       .  S
C501        H502   1.081       .  S
C506       C2436   1.532   1_455  S
C506        C509   1.537       .  S
C506        C701   1.553       .  S
C507        C511   1.522       .  S
C507        C513   1.533       .  S
C507        C512   1.647       .  S
C507        C748   1.617       .  S
C508       C2434   1.532       .  S
C508        C516   1.371       .  A
C509        C520   1.392       .  A
C509       C1958   1.427   1_456  A
C510        C524   1.379       .  A
C510       C2441   1.412       .  A
C512       C1955   1.426       .  A
C512        C518   1.432       .  A
C513       C2438   1.412       .  A
C513       C2449   1.370       .  A
C514        N515   1.343       .  A
C514        H527   1.082       .  S
N515        C516   1.337       .  A
N515        C632   1.405       .  S
C516        H517   1.080       .  S
C518        N519   1.394       .  A
C518        H528   1.101       .  S
N519       C1966   1.362       .  A
C520       N1965   1.360   1_456  A
C520        H526   1.062       .  S
C521       C2441   1.367       .  A
C521        N522   1.341       .  A
C521        H523   1.081       .  S
N522        C524   1.346       .  A
N522        C726   1.416       .  S
C524        H525   1.080       .  S
C529       C1495   1.535   1_545  S
C529        C532   1.642   1_545  S
C529        C679   1.629       .  S
C530       C1500   1.522       .  S
C530        C535   1.544       .  S
C530        C723   1.563       .  S
C531       C1493   1.535       .  S
C531        C539   1.381       .  A
C531        C534   1.406   1_556  A
C532        C543   1.431   1_565  A
C532       C1017   1.425   1_556  A
C533        C547   1.375       .  A
C533        C536   1.417   1_545  A
C534        C537   1.370   1_554  A
C535       C1014   1.429       .  A
C535        C541   1.390       .  A
C536       C1494   1.519       .  S
C536        C544   1.370   1_565  A
C537        N538   1.332       .  A
C537        H550   1.079   1_556  S
N538        C539   1.345       .  A
N538        C704   1.405       .  S
C539        H540   1.081       .  S
C541        N542   1.358       .  A
C541        H551   1.079       .  S
N542       C1025   1.397       .  A
N542       N1529   1.452       .  S
C543       N1024   1.397   1_546  A
C543        H549   1.084       .  S
C544        N545   1.338       .  A
C544        H546   1.079   1_545  S
N545        C547   1.344       .  A
N545        C764   1.407       .  S
C547        H548   1.082       .  S
C552        C554   1.537       .  S
C552       C1520   1.525       .  S
C552        C555   1.644       .  S
C552        C742   1.631       .  S
C553       C1521   1.524       .  S
C553        C558   1.536       .  S
C553        C657   1.551       .  S
C555        C566   1.433       .  A
C555       C1040   1.426       .  A
C556       C1516   1.526   1_545  S
C556        C570   1.377       .  A
C556        C559   1.405       .  A
C557       C1517   1.524       .  S
C557        C560   1.377       .  A
C558       C1037   1.425   1_546  A
C558        C564   1.386       .  A
C559        C567   1.371       .  A
C560        N561   1.346       .  A
C560        H573   1.081       .  S
N561        C562   1.343       .  A
N561        C638   1.416       .  S
C562        H563   1.080       .  S
C564        H574   1.080       .  S
N565       C1530   1.397   1_545  A
N565       N1506   1.451   1_545  S
C566       N1529   1.397       .  A
C566        H572   1.084       .  S
C567        N568   1.335       .  A
C567        H569   1.080       .  S
N568        C570   1.346       .  A
N568        C786   1.406       .  S
C570        H571   1.082       .  S
C575       C1541   1.525       .  S
C575        C579   1.527       .  S
C575        C578   1.646       .  S
C575        C745   1.625       .  S
C576       C2508   1.523       .  S
C576       C1546   1.519       .  S
C576        C581   1.540       .  S
C576        C767   1.552       .  S
C577       C1539   1.526   1_545  S
C577        C585   1.368       .  A
C577        C580   1.409       .  A
C578        C589   1.433       .  A
C578       C3473   1.426       .  A
C579       C2521   1.367       .  A
C579       C2510   1.410       .  A
C580       C2504   1.525       .  S
C580        C583   1.368       .  A
C581       C3470   1.424   1_445  A
C581        C587   1.390       .  A
C582       C1540   1.524       .  S
C582       C2507   1.410       .  A
C582        C590   1.371       .  A
C583        N584   1.337       .  A
C583        H596   1.081       .  S
N584        C585   1.340       .  A
N584        C792   1.401       .  S
C585        H586   1.079       .  S
C587       N2516   1.358   1_455  A
C587        H597   1.077       .  S
N588       C2515   1.357       .  A
N588       C1553   1.397   1_545  A
N588       N1575   1.453   1_545  S
C589       N1552   1.397       .  A
C589        H595   1.086       .  S
C590        N591   1.346       .  A
C590        H592   1.081       .  S
N591        C593   1.343       .  A
N591        C720   1.407       .  S
C593       C2507   1.367       .  A
C593        H594   1.082       .  S
C598       C2528   1.526   1_455  S
C598       C1566   1.530   1_545  S
C598        C601   1.645   1_455  S
C598        C676   1.622       .  S
C599       C1567   1.533       .  S
C599       C2533   1.526       .  S
C599        C604   1.539       .  S
C599        C635   1.554       .  S
C600       C2526   1.523       .  S
C600        C608   1.375       .  A
C600        C603   1.400   1_545  A
C601        C612   1.433   1_655  A
C601       C3496   1.426   1_545  A
C602       C1562   1.528       .  S
C602        C616   1.363       .  A
C602        C605   1.411   1_455  A
C603       C1563   1.531       .  S
C603        C606   1.370   1_565  A
C604       C3493   1.425       .  A
C604        C610   1.390       .  A
C605       C2527   1.523       .  S
C605        C613   1.376       .  A
C606        N607   1.339       .  A
C606        H619   1.080       .  S
N607        C608   1.344       .  A
N607        C660   1.406       .  S
C608        H609   1.081       .  S
C610        N611   1.358       .  A
C610        H620   1.074       .  S
N611       C3504   1.397       .  A
N611       N1552   1.454       .  S
C612       N3503   1.397   1_445  A
C612        H618   1.088       .  S
C613        N614   1.346   1_655  A
C613        H615   1.082       .  S
N614        C616   1.338       .  A
N614        C698   1.410       .  S
C616        H617   1.081       .  S
O621       Cr639   1.973       .  S
O621        C629   1.257       .  A
O622       Cr639   1.953       .  S
O622        C623   1.262       .  A
C623        O624   1.277       .  A
C623        C955   1.486       .  S
O624       Cr640   2.038       .  S
O625       Cr640   1.958       .  S
O625        C626   1.256       .  A
C626        O627   1.259       .  A
C626        C924   1.457       .  S
O627       Cr641   1.980       .  S
O628       Cr641   2.016       .  S
O628        C629   1.262       .  A
C629        C938   1.483       .  S
O630       Cr639   1.942       .  S
O630        C638   1.256       .  A
O631       Cr639   1.974       .  S
O631        C632   1.252       .  A
C632        O633   1.250       .  A
O633       Cr640   1.945       .  S
O634       Cr640   2.053       .  S
O634        C635   1.275       .  A
C635        O636   1.261       .  A
O636       Cr641   1.973       .  S
O637       Cr641   2.004       .  S
O637        C638   1.268       .  A
Cr639       O642   1.760       .  S
Cr640       O642   1.762       .  S
Cr641       O642   1.767       .  S
O643       Cr661   1.963       .  S
O643        C651   1.256       .  A
O644       Cr661   1.971       .  S
O644        C645   1.259       .  A
C645        O646   1.264       .  A
C645        C952   1.484       .  S
O646       Cr662   2.016       .  S
O647       Cr662   1.971       .  S
O647        C648   1.258       .  A
C648        O649   1.257       .  A
C648        C913   1.452       .  S
O649       Cr663   1.955       .  S
O650       Cr663   2.036       .  S
O650        C651   1.278       .  A
C651        C896   1.474       .  S
O652       Cr661   1.983       .  S
O652        C660   1.257       .  A
O653       Cr661   1.930       .  S
O653        C654   1.253       .  A
C654        O655   1.265       .  A
O655       Cr662   2.003       .  S
O656       Cr662   1.973       .  S
O656        C657   1.261       .  A
C657        O658   1.273       .  A
O658       Cr663   2.049       .  S
O659       Cr663   1.944       .  S
O659        C660   1.249       .  A
Cr661       O664   1.755       .  S
Cr662       O664   1.762       .  S
Cr663       O664   1.759       .  S
O665       Cr683   1.955       .  S
O665        C673   1.244       .  A
O666       Cr683   1.979       .  S
O666        C667   1.252       .  A
C667        O668   1.258       .  A
C667        C871   1.467       .  S
O668       Cr684   1.976       .  S
O669       Cr684   1.959       .  S
O669        C670   1.247       .  A
C670        O671   1.255       .  A
C670        C910   1.451       .  S
O671       Cr685   1.972       .  S
O672       Cr685   1.982       .  S
O672        C673   1.256       .  A
C673        C885   1.462       .  S
O674       Cr683   2.048       .  S
O674        C682   1.299       .  A
O675       Cr683   2.082       .  S
O675        C676   1.282       .  A
C676        O677   1.295       .  A
O677       Cr684   2.039       .  S
O678       Cr684   2.089       .  S
O678        C679   1.288       .  A
C679        O680   1.298       .  A
O680       Cr685   2.056       .  S
O681       Cr685   2.087       .  S
O681        C682   1.288       .  A
Cr683       O686   1.807       .  S
Cr684       O686   1.801       .  S
Cr685       O686   1.798       .  S
O687       Cr705   1.950       .  S
O687        C695   1.261       .  A
O688       Cr705   1.966       .  S
O688        C689   1.250       .  A
C689        O690   1.270       .  A
C689        C854   1.479       .  S
O690       Cr706   2.012       .  S
O691       Cr706   1.963       .  S
O691        C692   1.262       .  A
C692        O693   1.252       .  A
C692        C882   1.469       .  S
O693       Cr707   1.968       .  S
O694       Cr707   2.033       .  S
O694        C695   1.276       .  A
C695        C941   1.483       .  S
O696       Cr705   1.963       .  S
O696        C704   1.250       .  A
O697       Cr705   1.941       .  S
O697        C698   1.257       .  A
C698        O699   1.262       .  A
O699       Cr706   1.988       .  S
O700       Cr706   1.977       .  S
O700        C701   1.262       .  A
C701        O702   1.274       .  A
O702       Cr707   2.051       .  S
O703       Cr707   1.946       .  S
O703        C704   1.249       .  A
Cr705       O708   1.760       .  S
Cr706       O708   1.754       .  S
Cr707       O708   1.770       .  S
O709       Cr727   1.980       .  S
O709        C717   1.259       .  A
O710       Cr727   1.948       .  S
O710        C711   1.254       .  A
C711        O712   1.286       .  A
C711        C857   1.485       .  S
O712       Cr728   2.045       .  S
O713       Cr728   1.946       .  S
O713        C714   1.249       .  A
C714        O715   1.260       .  A
C714        C840   1.447       .  S
O715       Cr729   1.973       .  S
O716       Cr729   2.028       .  S
O716        C717   1.267       .  A
C717        C829   1.494       .  S
O718       Cr727   1.942       .  S
O718        C726   1.256       .  A
O719       Cr727   1.984       .  S
O719        C720   1.255       .  A
C720        O721   1.244       .  A
O721       Cr728   1.939       .  S
O722       Cr728   2.063       .  S
O722        C723   1.278       .  A
C723        O724   1.262       .  A
O724       Cr729   1.975       .  S
O725       Cr729   2.003       .  S
O725        C726   1.267       .  A
Cr727       O730   1.762       .  S
Cr728       O730   1.765       .  S
Cr729       O730   1.760       .  S
O731       Cr749   1.981       .  S
O731        C739   1.252       .  A
O732       Cr749   1.963       .  S
O732        C733   1.246       .  A
C733        O734   1.257       .  A
C733        C843   1.468       .  S
O734       Cr750   1.981       .  S
O735       Cr750   1.960       .  S
O735        C736   1.254       .  A
C736        O737   1.253       .  A
C736        C927   1.469       .  S
O737       Cr751   1.983       .  S
O738       Cr751   1.951       .  S
O738        C739   1.252       .  A
C739        C815   1.464       .  S
O740       Cr749   2.035       .  S
O740        C748   1.295       .  A
O741       Cr749   2.101       .  S
O741        C742   1.290       .  A
C742        O743   1.297       .  A
O743       Cr750   2.051       .  S
O744       Cr750   2.095       .  S
O744        C745   1.289       .  A
C745        O746   1.295       .  A
O746       Cr751   2.046       .  S
O747       Cr751   2.083       .  S
O747        C748   1.286       .  A
Cr749       O752   1.806       .  S
Cr750       O752   1.796       .  S
Cr751       O752   1.803       .  S
O753       Cr771   1.985       .  S
O753        C761   1.261       .  A
O754       Cr771   1.932       .  S
O754        C755   1.257       .  A
C755        O756   1.274       .  A
C755        C798   1.470       .  S
O756       Cr772   2.040       .  S
O757       Cr772   1.963       .  S
O757        C758   1.254       .  A
C758        O759   1.263       .  A
C758        C868   1.457       .  S
O759       Cr773   1.971       .  S
O760       Cr773   2.007       .  S
O760        C761   1.268       .  A
C761        C826   1.475       .  S
O762       Cr771   1.950       .  S
O762        C770   1.254       .  A
O763       Cr771   1.974       .  S
O763        C764   1.254       .  A
C764        O765   1.248       .  A
O765       Cr772   1.943       .  S
O766       Cr772   2.052       .  S
O766        C767   1.273       .  A
C767        O768   1.261       .  A
O768       Cr773   1.977       .  S
O769       Cr773   1.974       .  S
O769        C770   1.259       .  A
Cr771       O774   1.761       .  S
Cr772       O774   1.778       .  S
Cr773       O774   1.758       .  S
O775       Cr793   1.984       .  S
O775        C783   1.255       .  A
O776       Cr793   1.949       .  S
O776        C777   1.257       .  A
C777        O778   1.276       .  A
C777        C801   1.460       .  S
O778       Cr794   2.039       .  S
O779       Cr794   1.954       .  S
O779        C780   1.255       .  A
C780        O781   1.259       .  A
C780        C812   1.449       .  S
O781       Cr795   1.979       .  S
O782       Cr795   2.001       .  S
O782        C783   1.267       .  A
C783        C899   1.471       .  S
O784       Cr793   1.930       .  S
O784        C792   1.252       .  A
O785       Cr793   1.974       .  S
O785        C786   1.253       .  A
C786        O787   1.251       .  A
O787       Cr794   1.948       .  S
O788       Cr794   2.060       .  S
O788        C789   1.276       .  A
C789        O790   1.261       .  A
O790       Cr795   1.980       .  S
O791       Cr795   1.974       .  S
O791        C792   1.263       .  A
Cr793       O796   1.764       .  S
Cr794       O796   1.763       .  S
Cr795       O796   1.756       .  S
C797        C798   1.406       .  A
C797        C802   1.393       .  A
C797        H804   1.080       .  S
C798        C799   1.411       .  A
C799        C800   1.395       .  A
C799        N806   1.428       .  S
C800        C801   1.401       .  A
C800        H805   1.081       .  S
C801        C802   1.404       .  A
C802        N803   1.426       .  S
N803        O807   1.262       .  A
N803        O808   1.262       .  A
N806        O810   1.262       .  A
N806        O809   1.262       .  A
C811        C812   1.397       .  A
C811        C816   1.386       .  A
C811        H818   1.082       .  S
C812        C813   1.406       .  A
C813        C814   1.387       .  A
C813        N820   1.428       .  S
C814        C815   1.404       .  A
C814        H819   1.077       .  S
C815        C816   1.414       .  A
C816        N817   1.429       .  S
N817        O821   1.262       .  A
N817        O822   1.260       .  A
N820        O824   1.262       .  A
N820        O823   1.262       .  A
C825        C826   1.406       .  A
C825        C830   1.404       .  A
C825        H832   1.081       .  S
C826        C827   1.405       .  A
C827        C828   1.396       .  A
C827        N834   1.428       .  S
C828        C829   1.412       .  A
C828        H833   1.080       .  S
C829        C830   1.414       .  A
C830        N831   1.426       .  S
N831        O835   1.262       .  A
N831        O836   1.262       .  A
N834        O838   1.262       .  A
N834        O837   1.262       .  A
C839        C840   1.391       .  A
C839        C844   1.388       .  A
C839        H846   1.081       .  S
C840        C841   1.409       .  A
C841        C842   1.386       .  A
C841        N848   1.428       .  S
C842        C843   1.401       .  A
C842        H847   1.080       .  S
C843        C844   1.417       .  A
C844        N845   1.424       .  S
N845        O849   1.262       .  A
N845        O850   1.262       .  A
N848        O852   1.262       .  A
N848        O851   1.262       .  A
C853        C854   1.394       .  A
C853        C858   1.399       .  A
C853        H860   1.080       .  S
C854        C855   1.424       .  A
C855        C856   1.390       .  A
C855        N862   1.429       .  S
C856        C857   1.394       .  A
C856        H861   1.080       .  S
C857        C858   1.426       .  A
C858        N859   1.427       .  S
N859        O863   1.262       .  A
N859        O864   1.262       .  A
N862        O866   1.262       .  A
N862        O865   1.261       .  A
C867        C868   1.397       .  A
C867        C872   1.388       .  A
C867        H874   1.081       .  S
C868        C869   1.408       .  A
C869        C870   1.389       .  A
C869        N876   1.427       .  S
C870        C871   1.403       .  A
C870        H875   1.080       .  S
C871        C872   1.411       .  A
C872        N873   1.423       .  S
N873        O877   1.263       .  A
N873        O878   1.262       .  A
N876        O880   1.262       .  A
N876        O879   1.262       .  A
C881        C882   1.399       .  A
C881        C886   1.379       .  A
C881        H888   1.080       .  S
C882        C883   1.414       .  A
C883        C884   1.394       .  A
C883        N890   1.427       .  S
C884        C885   1.400       .  A
C884        H889   1.080       .  S
C885        C886   1.417       .  A
C886        N887   1.432       .  S
N887        O891   1.260       .  A
N887        O892   1.262       .  A
N890        O894   1.262       .  A
N890        O893   1.262       .  A
C895        C896   1.398       .  A
C895        C900   1.393       .  A
C895        H902   1.081       .  S
C896        C897   1.415       .  A
C897        C898   1.400       .  A
C897        N904   1.426       .  S
C898        C899   1.397       .  A
C898        H903   1.081       .  S
C899        C900   1.417       .  A
C900        N901   1.430       .  S
N901        O905   1.262       .  A
N901        O906   1.262       .  A
N904        O908   1.262       .  A
N904        O907   1.262       .  A
C909        C910   1.397       .  A
C909        C914   1.383       .  A
C909        H916   1.081       .  S
C910        C911   1.408       .  A
C911        C912   1.389       .  A
C911        N918   1.427       .  S
C912        C913   1.400       .  A
C912        H917   1.081       .  S
C913        C914   1.409       .  A
C914        N915   1.428       .  S
N915        O919   1.262       .  A
N915        O920   1.262       .  A
N918        O922   1.262       .  A
N918        O921   1.261       .  A
C923        C924   1.398       .  A
C923        C928   1.389       .  A
C923        H930   1.081       .  S
C924        C925   1.408       .  A
C925        C926   1.388       .  A
C925        N932   1.427       .  S
C926        C927   1.402       .  A
C926        H931   1.080       .  S
C927        C928   1.415       .  A
C928        N929   1.428       .  S
N929        O933   1.262       .  A
N929        O934   1.262       .  A
N932        O936   1.262       .  A
N932        O935   1.262       .  A
C937        C938   1.408       .  A
C937        C942   1.390       .  A
C937        H944   1.080       .  S
C938        C939   1.410       .  A
C939        C940   1.400       .  A
C939        N946   1.427       .  S
C940        C941   1.408       .  A
C940        H945   1.072       .  S
C941        C942   1.408       .  A
C942        N943   1.427       .  S
N943        O947   1.262       .  A
N943        O948   1.262       .  A
N946        O950   1.262       .  A
N946        O949   1.262       .  A
C951        C952   1.407       .  A
C951        C956   1.390       .  A
C951        H958   1.080       .  S
C952        C953   1.410       .  A
C953        C954   1.402       .  A
C953        N960   1.427       .  S
C954        C955   1.411       .  A
C954        H959   1.080       .  S
C955        C956   1.411       .  A
C956        N957   1.428       .  S
N957        O961   1.262       .  A
N957        O962   1.262       .  A
N960        O964   1.262       .  A
N960        O963   1.262       .  A
C965       C1449   1.533       .  S
C965       C2897   1.529       .  S
C965        C968   1.535       .  S
C965       C1271   1.554       .  S
C966       C2898   1.529   1_455  S
C966       C1454   1.522       .  S
C966        C971   1.649       .  S
C966       C1164   1.630       .  S
C967       C1447   1.525       .  S
C967        C975   1.375       .  A
C967        C970   1.414       .  A
C968        C979   1.392       .  A
C968       C3381   1.425       .  A
C969       C2893   1.532       .  S
C969        C983   1.373   1_655  A
C969        C972   1.402   1_655  A
C970       C2894   1.526       .  S
C970        C973   1.359       .  A
C971       C3378   1.426   1_455  A
C971        C977   1.433       .  A
C972       C1448   1.523   1_554  S
C972        C980   1.373       .  A
C973        N974   1.342       .  A
C973        H986   1.082       .  S
N974        C975   1.345       .  A
N974       C1136   1.407       .  S
C975        H976   1.080       .  S
C977       N3388   1.394   1_455  A
C977        H987   1.102       .  S
N978       C3387   1.396   1_554  A
N978        C979   1.361       .  A
N978       N1001   1.456       .  S
C979        H985   1.057       .  S
C980        N981   1.339       .  A
C980        H982   1.079       .  S
N981        C983   1.344       .  A
N981       C1252   1.409       .  S
C983        H984   1.081       .  S
C988       C2918   1.534   1_455  S
C988       C1474   1.526       .  S
C988        C991   1.537       .  S
C988       C1183   1.552       .  S
C989        C993   1.520   1_554  S
C989        C995   1.533       .  S
C989        C994   1.654       .  S
C989       C1230   1.617       .  S
C990       C2916   1.534       .  S
C990        C998   1.372       .  A
C990       C1475   1.402       .  A
C991       C1002   1.391       .  A
C991       C3404   1.425   1_455  A
C992       C1470   1.527       .  S
C992       C1006   1.384   1_556  A
C992       C2923   1.411   1_556  A
C993       C1472   1.400       .  A
C993       C1478   1.377       .  A
C994       C3401   1.425   1_554  A
C994       C1000   1.436       .  A
C995       C2920   1.411   1_554  A
C995       C2931   1.370       .  A
C996       C1475   1.376       .  A
C996        N997   1.345       .  A
C996       H1009   1.082       .  S
N997        C998   1.339       .  A
N997       C1114   1.407       .  S
C998        H999   1.080       .  S
C1000      N1001   1.396       .  A
C1000      H1010   1.098       .  S
N1001      C3412   1.360   1_554  A
C1002      N3411   1.361   1_455  A
C1002      H1008   1.061       .  S
C1003      C2923   1.370       .  A
C1003      N1004   1.343       .  A
C1003      H1005   1.081       .  S
N1004      C1006   1.347       .  A
N1004      C1208   1.421       .  S
C1006      H1007   1.080   1_554  S
C1011      C1497   1.536       .  S
C1011      C1014   1.643       .  S
C1011      C1161   1.640       .  S
C1012      C1498   1.527       .  S
C1012      C1017   1.538       .  S
C1012      C1205   1.550       .  S
C1013      C1021   1.382       .  A
C1013      C1016   1.407       .  A
C1014      C1025   1.431       .  A
C1015      C1493   1.537   1_554  S
C1015      C1029   1.375       .  A
C1015      C1018   1.418       .  A
C1016      C1494   1.525       .  S
C1016      C1019   1.371       .  A
C1017      C1023   1.388       .  A
C1018      C1026   1.372       .  A
C1019      N1020   1.332       .  A
C1019      H1032   1.079       .  S
N1020      C1021   1.344       .  A
N1020      C1186   1.405       .  S
C1021      H1022   1.081       .  S
C1023      N1024   1.356       .  A
C1023      H1033   1.078       .  S
C1025      H1031   1.084       .  S
C1026      N1027   1.338       .  A
C1026      H1028   1.080       .  S
N1027      C1029   1.344       .  A
N1027      C1246   1.408       .  S
C1029      H1030   1.082       .  S
C1034      C1036   1.540   1_554  S
C1034      C1037   1.643       .  S
C1034      C1224   1.621       .  S
C1035      C1523   1.531       .  S
C1035      C1040   1.538       .  S
C1035      C1139   1.563       .  S
C1036      C1526   1.372       .  A
C1036      C1521   1.415   1_565  A
C1037      C1048   1.433       .  A
C1038      C1052   1.375       .  A
C1038      C1041   1.404       .  A
C1039      C1518   1.415   1_545  A
C1039      C1042   1.377   1_545  A
C1040      C1046   1.387       .  A
C1041      C1517   1.528   1_554  S
C1041      C1049   1.367       .  A
C1042      N1043   1.346       .  A
C1042      H1055   1.080   1_565  S
N1043      C1044   1.344       .  A
N1043      C1120   1.416       .  S
C1044      C1518   1.369       .  A
C1044      H1045   1.081       .  S
C1046      N1529   1.356       .  A
C1046      H1056   1.079       .  S
N1047      C1528   1.357   1_554  A
C1048      H1054   1.083       .  S
C1049      N1050   1.334       .  A
C1049      H1051   1.081       .  S
N1050      C1052   1.345       .  A
N1050      C1268   1.401       .  S
C1052      H1053   1.081       .  S
C1057      C1061   1.529       .  S
C1057      C1060   1.655       .  S
C1057      C1227   1.631       .  S
C1058      C2990   1.526       .  S
C1058      C1063   1.534       .  S
C1058      C1249   1.549       .  S
C1059      C1067   1.372       .  A
C1059      C1062   1.409       .  A
C1060      C1071   1.439       .  A
C1060      C2027   1.425   1_565  A
C1061      C3003   1.368       .  A
C1061      C2992   1.410   1_565  A
C1062      C2986   1.529       .  S
C1062      C1065   1.377       .  A
C1063      C2024   1.424   1_455  A
C1063      C1069   1.389       .  A
C1064      C2989   1.410   1_545  A
C1064      C1072   1.369   1_545  A
C1065      N1066   1.340       .  A
C1065      H1078   1.081       .  S
N1066      C1067   1.341       .  A
N1066      C1274   1.411       .  S
C1067      H1068   1.079       .  S
C1069      N2998   1.356   1_455  A
C1069      H1079   1.077       .  S
N1070      C2997   1.355       .  A
C1071      H1077   1.086       .  S
C1072      N1073   1.344       .  A
C1072      H1074   1.080       .  S
N1073      C1075   1.341       .  A
N1073      C1202   1.405       .  S
C1075      C2989   1.368       .  A
C1075      H1076   1.082       .  S
C1080      C3010   1.524   1_455  S
C1080      C1083   1.651   1_455  S
C1080      C1158   1.624       .  S
C1081      C3015   1.521       .  S
C1081      C1086   1.534       .  S
C1081      C1117   1.548       .  S
C1082      C3008   1.525       .  S
C1082      C1090   1.379       .  A
C1082      C1085   1.403       .  A
C1083      C1094   1.436   1_655  A
C1083      C2050   1.426       .  A
C1084      C1098   1.363       .  A
C1084      C1087   1.411   1_455  A
C1085      C1088   1.373       .  A
C1086      C2047   1.426   1_565  A
C1086      C1092   1.389       .  A
C1087      C3009   1.522       .  S
C1087      C1095   1.376       .  A
C1088      N1089   1.337       .  A
C1088      H1101   1.080       .  S
N1089      C1090   1.344       .  A
N1089      C1142   1.409       .  S
C1090      H1091   1.081       .  S
C1092      N1093   1.355       .  A
C1092      H1102   1.074       .  S
N1093      C2058   1.400   1_565  A
C1094      N2057   1.399   1_455  A
C1094      H1100   1.088       .  S
C1095      N1096   1.345   1_655  A
C1095      H1097   1.082       .  S
N1096      C1098   1.337       .  A
N1096      C1180   1.408       .  S
C1098      H1099   1.080       .  S
O1103     Cr1121   1.974       .  S
O1103      C1111   1.257       .  A
O1104     Cr1121   1.951       .  S
O1104      C1105   1.261       .  A
C1105      O1106   1.276       .  A
C1105      C1437   1.485       .  S
O1106     Cr1122   2.038       .  S
O1107     Cr1122   1.956       .  S
O1107      C1108   1.256       .  A
C1108      O1109   1.259       .  A
C1108      C1406   1.454       .  S
O1109     Cr1123   1.977       .  S
O1110     Cr1123   2.006       .  S
O1110      C1111   1.261       .  A
C1111      C1420   1.474       .  S
O1112     Cr1121   1.941       .  S
O1112      C1120   1.256       .  A
O1113     Cr1121   1.976       .  S
O1113      C1114   1.253       .  A
C1114      O1115   1.251       .  A
O1115     Cr1122   1.948       .  S
O1116     Cr1122   2.051       .  S
O1116      C1117   1.275       .  A
C1117      O1118   1.259       .  A
O1118     Cr1123   1.965       .  S
O1119     Cr1123   2.004       .  S
O1119      C1120   1.267       .  A
Cr1121     O1124   1.758       .  S
Cr1122     O1124   1.763       .  S
Cr1123     O1124   1.767       .  S
O1125     Cr1143   1.939       .  S
O1125      C1133   1.252       .  A
O1126     Cr1143   1.973       .  S
O1126      C1127   1.259       .  A
C1127      O1128   1.264       .  A
C1127      C1434   1.486       .  S
O1128     Cr1144   2.021       .  S
O1129     Cr1144   1.970       .  S
O1129      C1130   1.257       .  A
C1130      O1131   1.256       .  A
C1130      C1395   1.457       .  S
O1131     Cr1145   1.959       .  S
O1132     Cr1145   2.051       .  S
O1132      C1133   1.284       .  A
C1133      C1378   1.482       .  S
O1134     Cr1143   1.983       .  S
O1134      C1142   1.255       .  A
O1135     Cr1143   1.922       .  S
O1135      C1136   1.252       .  A
C1136      O1137   1.265       .  A
O1137     Cr1144   2.000       .  S
O1138     Cr1144   1.976       .  S
O1138      C1139   1.262       .  A
C1139      O1140   1.279       .  A
O1140     Cr1145   2.065       .  S
O1141     Cr1145   1.942       .  S
O1141      C1142   1.248       .  A
Cr1143     O1146   1.758       .  S
Cr1144     O1146   1.764       .  S
Cr1145     O1146   1.757       .  S
O1147     Cr1165   1.956       .  S
O1147      C1155   1.244       .  A
O1148     Cr1165   1.993       .  S
O1148      C1149   1.253       .  A
C1149      O1150   1.258       .  A
C1149      C1353   1.475       .  S
O1150     Cr1166   1.973       .  S
O1151     Cr1166   1.957       .  S
O1151      C1152   1.246       .  A
C1152      O1153   1.258       .  A
C1152      C1392   1.456       .  S
O1153     Cr1167   1.978       .  S
O1154     Cr1167   1.979       .  S
O1154      C1155   1.255       .  A
C1155      C1367   1.462       .  S
O1156     Cr1165   2.052       .  S
O1156      C1164   1.299       .  A
O1157     Cr1165   2.086       .  S
O1157      C1158   1.283       .  A
C1158      O1159   1.297       .  A
O1159     Cr1166   2.040       .  S
O1160     Cr1166   2.099       .  S
O1160      C1161   1.291       .  A
C1161      O1162   1.298       .  A
O1162     Cr1167   2.063       .  S
O1163     Cr1167   2.098       .  S
O1163      C1164   1.291       .  A
Cr1165     O1168   1.809       .  S
Cr1166     O1168   1.798       .  S
Cr1167     O1168   1.798       .  S
O1169     Cr1187   1.943       .  S
O1169      C1177   1.260       .  A
O1170     Cr1187   1.966       .  S
O1170      C1171   1.250       .  A
C1171      O1172   1.269       .  A
C1171      C1336   1.475       .  S
O1172     Cr1188   2.005       .  S
O1173     Cr1188   1.965       .  S
O1173      C1174   1.262       .  A
C1174      O1175   1.252       .  A
C1174      C1364   1.469       .  S
O1175     Cr1189   1.967       .  S
O1176     Cr1189   2.042       .  S
O1176      C1177   1.277       .  A
C1177      C1423   1.483       .  S
O1178     Cr1187   1.964       .  S
O1178      C1186   1.250       .  A
O1179     Cr1187   1.940       .  S
O1179      C1180   1.257       .  A
C1180      O1181   1.262       .  A
O1181     Cr1188   1.987       .  S
O1182     Cr1188   1.970       .  S
O1182      C1183   1.261       .  A
C1183      O1184   1.277       .  A
O1184     Cr1189   2.057       .  S
O1185     Cr1189   1.943       .  S
O1185      C1186   1.248       .  A
Cr1187     O1190   1.759       .  S
Cr1188     O1190   1.754       .  S
Cr1189     O1190   1.770       .  S
O1191     Cr1209   1.981       .  S
O1191      C1199   1.261       .  A
O1192     Cr1209   1.948       .  S
O1192      C1193   1.254       .  A
C1193      O1194   1.282       .  A
C1193      C1339   1.481       .  S
O1194     Cr1210   2.034       .  S
O1195     Cr1210   1.946       .  S
O1195      C1196   1.249       .  A
C1196      O1197   1.265       .  A
C1196      C1322   1.454       .  S
O1197     Cr1211   1.989       .  S
O1198     Cr1211   2.010       .  S
O1198      C1199   1.266       .  A
C1199      C1311   1.482       .  S
O1200     Cr1209   1.944       .  S
O1200      C1208   1.256       .  A
O1201     Cr1209   1.981       .  S
O1201      C1202   1.255       .  A
C1202      O1203   1.244       .  A
O1203     Cr1210   1.937       .  S
O1204     Cr1210   2.051       .  S
O1204      C1205   1.274       .  A
C1205      O1206   1.259       .  A
O1206     Cr1211   1.964       .  S
O1207     Cr1211   2.013       .  S
O1207      C1208   1.268       .  A
Cr1209     O1212   1.762       .  S
Cr1210     O1212   1.767       .  S
Cr1211     O1212   1.759       .  S
O1213     Cr1231   1.962       .  S
O1213      C1221   1.247       .  A
O1214     Cr1231   1.966       .  S
O1214      C1215   1.247       .  A
C1215      O1216   1.259       .  A
C1215      C1325   1.472       .  S
O1216     Cr1232   1.984       .  S
O1217     Cr1232   1.954       .  S
O1217      C1218   1.252       .  A
C1218      O1219   1.249       .  A
C1218      C1409   1.460       .  S
O1219     Cr1233   1.973       .  S
O1220     Cr1233   1.959       .  S
O1220      C1221   1.254       .  A
C1221      C1297   1.457       .  S
O1222     Cr1231   2.035       .  S
O1222      C1230   1.297       .  A
O1223     Cr1231   2.089       .  S
O1223      C1224   1.286       .  A
C1224      O1225   1.295       .  A
O1225     Cr1232   2.044       .  S
O1226     Cr1232   2.098       .  S
O1226      C1227   1.290       .  A
C1227      O1228   1.298       .  A
O1228     Cr1233   2.051       .  S
O1229     Cr1233   2.079       .  S
O1229      C1230   1.285       .  A
Cr1231     O1234   1.807       .  S
Cr1232     O1234   1.794       .  S
Cr1233     O1234   1.800       .  S
O1235     Cr1253   1.981       .  S
O1235      C1243   1.261       .  A
O1236     Cr1253   1.936       .  S
O1236      C1237   1.255       .  A
C1237      O1238   1.276       .  A
C1237      C1280   1.457       .  S
O1238     Cr1254   2.040       .  S
O1239     Cr1254   1.963       .  S
O1239      C1240   1.255       .  A
C1240      O1241   1.261       .  A
C1240      C1350   1.453       .  S
O1241     Cr1255   1.973       .  S
O1242     Cr1255   2.006       .  S
O1242      C1243   1.267       .  A
C1243      C1308   1.476       .  S
O1244     Cr1253   1.952       .  S
O1244      C1252   1.255       .  A
O1245     Cr1253   1.975       .  S
O1245      C1246   1.253       .  A
C1246      O1247   1.247       .  A
O1247     Cr1254   1.945       .  S
O1248     Cr1254   2.049       .  S
O1248      C1249   1.274       .  A
C1249      O1250   1.261       .  A
O1250     Cr1255   1.973       .  S
O1251     Cr1255   1.977       .  S
O1251      C1252   1.260       .  A
Cr1253     O1256   1.762       .  S
Cr1254     O1256   1.775       .  S
Cr1255     O1256   1.760       .  S
O1257     Cr1275   1.958       .  S
O1257      C1265   1.250       .  A
O1258     Cr1275   1.954       .  S
O1258      C1259   1.252       .  A
C1259      O1260   1.274       .  A
C1259      C1283   1.455       .  S
O1260     Cr1276   2.027       .  S
O1261     Cr1276   1.947       .  S
O1261      C1262   1.253       .  A
C1262      O1263   1.260       .  A
C1262      C1294   1.441       .  S
O1263     Cr1277   1.982       .  S
O1264     Cr1277   2.010       .  S
O1264      C1265   1.269       .  A
C1265      C1381   1.472       .  S
O1266     Cr1275   1.939       .  S
O1266      C1274   1.255       .  A
O1267     Cr1275   1.972       .  S
O1267      C1268   1.254       .  A
C1268      O1269   1.250       .  A
O1269     Cr1276   1.940       .  S
O1270     Cr1276   2.046       .  S
O1270      C1271   1.272       .  A
C1271      O1272   1.266       .  A
O1272     Cr1277   1.991       .  S
O1273     Cr1277   1.990       .  S
O1273      C1274   1.266       .  A
Cr1275     O1278   1.760       .  S
Cr1276     O1278   1.760       .  S
Cr1277     O1278   1.752       .  S
C1279      C1280   1.400       .  A
C1279      C1284   1.397       .  A
C1279      H1286   1.081       .  S
C1280      C1281   1.409       .  A
C1281      C1282   1.390       .  A
C1281      N1288   1.427       .  S
C1282      C1283   1.396       .  A
C1282      H1287   1.081       .  S
C1283      C1284   1.411       .  A
C1284      N1285   1.428       .  S
N1285      O1289   1.262       .  A
N1285      O1290   1.262       .  A
N1288      O1292   1.262       .  A
N1288      O1291   1.262       .  A
C1293      C1294   1.395       .  A
C1293      C1298   1.383       .  A
C1293      H1300   1.081       .  S
C1294      C1295   1.402       .  A
C1295      C1296   1.385       .  A
C1295      N1302   1.427       .  S
C1296      C1297   1.401       .  A
C1296      H1301   1.074       .  S
C1297      C1298   1.416       .  A
C1298      N1299   1.430       .  S
N1299      O1303   1.261       .  A
N1299      O1304   1.261       .  A
N1302      O1306   1.262       .  A
N1302      O1305   1.262       .  A
C1307      C1308   1.407       .  A
C1307      C1312   1.398       .  A
C1307      H1314   1.081       .  S
C1308      C1309   1.406       .  A
C1309      C1310   1.398       .  A
C1309      N1316   1.428       .  S
C1310      C1311   1.409       .  A
C1310      H1315   1.078       .  S
C1311      C1312   1.408       .  A
C1312      N1313   1.426       .  S
N1313      O1317   1.262       .  A
N1313      O1318   1.262       .  A
N1316      O1320   1.262       .  A
N1316      O1319   1.262       .  A
C1321      C1322   1.391       .  A
C1321      C1326   1.390       .  A
C1321      H1328   1.081       .  S
C1322      C1323   1.411       .  A
C1323      C1324   1.388       .  A
C1323      N1330   1.427       .  S
C1324      C1325   1.400       .  A
C1324      H1329   1.080       .  S
C1325      C1326   1.417       .  A
C1326      N1327   1.424       .  S
N1327      O1331   1.262       .  A
N1327      O1332   1.261       .  A
N1330      O1334   1.262       .  A
N1330      O1333   1.262       .  A
C1335      C1336   1.393       .  A
C1335      C1340   1.396       .  A
C1335      H1342   1.080       .  S
C1336      C1337   1.423       .  A
C1337      C1338   1.389       .  A
C1337      N1344   1.429       .  S
C1338      C1339   1.394       .  A
C1338      H1343   1.080       .  S
C1339      C1340   1.423       .  A
C1340      N1341   1.425       .  S
N1341      O1345   1.262       .  A
N1341      O1346   1.262       .  A
N1344      O1348   1.262       .  A
N1344      O1347   1.261       .  A
C1349      C1350   1.395       .  A
C1349      C1354   1.393       .  A
C1349      H1356   1.081       .  S
C1350      C1351   1.405       .  A
C1351      C1352   1.385       .  A
C1351      N1358   1.427       .  S
C1352      C1353   1.404       .  A
C1352      H1357   1.080       .  S
C1353      C1354   1.415       .  A
C1354      N1355   1.422       .  S
N1355      O1359   1.262       .  A
N1355      O1360   1.262       .  A
N1358      O1362   1.262       .  A
N1358      O1361   1.262       .  A
C1363      C1364   1.399       .  A
C1363      C1368   1.381       .  A
C1363      H1370   1.081       .  S
C1364      C1365   1.415       .  A
C1365      C1366   1.393       .  A
C1365      N1372   1.427       .  S
C1366      C1367   1.399       .  A
C1366      H1371   1.080       .  S
C1367      C1368   1.416       .  A
C1368      N1369   1.431       .  S
N1369      O1373   1.259       .  A
N1369      O1374   1.262       .  A
N1372      O1376   1.262       .  A
N1372      O1375   1.262       .  A
C1377      C1378   1.394       .  A
C1377      C1382   1.394       .  A
C1377      H1384   1.080       .  S
C1378      C1379   1.426       .  A
C1379      C1380   1.395       .  A
C1379      N1386   1.426       .  S
C1380      C1381   1.390       .  A
C1380      H1385   1.080       .  S
C1381      C1382   1.422       .  A
C1382      N1383   1.429       .  S
N1383      O1387   1.262       .  A
N1383      O1388   1.262       .  A
N1386      O1390   1.261       .  A
N1386      O1389   1.262       .  A
C1391      C1392   1.397       .  A
C1391      C1396   1.383       .  A
C1391      H1398   1.081       .  S
C1392      C1393   1.411       .  A
C1393      C1394   1.390       .  A
C1393      N1400   1.428       .  S
C1394      C1395   1.400       .  A
C1394      H1399   1.080       .  S
C1395      C1396   1.410       .  A
C1396      N1397   1.428       .  S
N1397      O1401   1.262       .  A
N1397      O1402   1.262       .  A
N1400      O1404   1.262       .  A
N1400      O1403   1.262       .  A
C1405      C1406   1.398       .  A
C1405      C1410   1.388       .  A
C1405      H1412   1.081       .  S
C1406      C1407   1.408       .  A
C1407      C1408   1.384       .  A
C1407      N1414   1.427       .  S
C1408      C1409   1.400       .  A
C1408      H1413   1.080       .  S
C1409      C1410   1.414       .  A
C1410      N1411   1.429       .  S
N1411      O1415   1.262       .  A
N1411      O1416   1.262       .  A
N1414      O1418   1.262       .  A
N1414      O1417   1.262       .  A
C1419      C1420   1.406       .  A
C1419      C1424   1.392       .  A
C1419      H1426   1.080       .  S
C1420      C1421   1.406       .  A
C1421      C1422   1.396       .  A
C1421      N1428   1.428       .  S
C1422      C1423   1.411       .  A
C1422      H1427   1.072       .  S
C1423      C1424   1.409       .  A
C1424      N1425   1.427       .  S
N1425      O1429   1.262       .  A
N1425      O1430   1.262       .  A
N1428      O1432   1.262       .  A
N1428      O1431   1.262       .  A
C1433      C1434   1.408       .  A
C1433      C1438   1.390       .  A
C1433      H1440   1.080       .  S
C1434      C1435   1.411       .  A
C1435      C1436   1.402       .  A
C1435      N1442   1.427       .  S
C1436      C1437   1.411       .  A
C1436      H1441   1.080       .  S
C1437      C1438   1.410       .  A
C1438      N1439   1.429       .  S
N1439      O1443   1.262       .  A
N1439      O1444   1.262       .  A
N1442      O1446   1.262       .  A
N1442      O1445   1.262       .  A
C1447      C3379   1.533       .  S
C1447      C1450   1.537       .  S
C1447      C1753   1.556       .  S
C1448      C3380   1.528   1_455  S
C1448      C1453   1.649   1_556  S
C1448      C1646   1.621       .  S
C1449      C1457   1.380   1_554  A
C1449      C1452   1.415   1_554  A
C1450      C1461   1.392       .  A
C1450      C2899   1.425       .  A
C1451      C3375   1.532       .  S
C1451      C1465   1.371   1_655  A
C1451      C1454   1.403   1_655  A
C1452      C3376   1.529       .  S
C1452      C1455   1.364       .  A
C1453      C2896   1.423   1_455  A
C1453      C1459   1.434   1_554  A
C1454      C1462   1.371       .  A
C1455      N1456   1.343       .  A
C1455      H1468   1.082       .  S
N1456      C1457   1.348       .  A
N1456      C1618   1.416       .  S
C1457      H1458   1.081   1_556  S
C1459      N2906   1.394   1_456  A
C1459      H1469   1.103       .  S
N1460      C2905   1.393       .  A
N1460      C1461   1.363       .  A
N1460      N1483   1.455       .  S
C1461      H1467   1.056       .  S
C1462      N1463   1.341       .  A
C1462      H1464   1.079       .  S
N1463      C1465   1.343       .  A
N1463      C1734   1.408       .  S
C1465      H1466   1.080       .  S
C1470      C3400   1.532   1_455  S
C1470      C1473   1.535       .  S
C1470      C1665   1.547       .  S
C1471      C1475   1.520       .  S
C1471      C1477   1.533       .  S
C1471      C1476   1.647       .  S
C1471      C1712   1.617       .  S
C1472      C3398   1.534       .  S
C1472      C1480   1.373       .  A
C1473      C1484   1.390       .  A
C1473      C2922   1.426   1_456  A
C1474      C1488   1.378       .  A
C1474      C3405   1.410       .  A
C1476      C2919   1.427       .  A
C1476      C1482   1.432       .  A
C1477      C3402   1.411       .  A
C1477      C3413   1.370       .  A
C1478      N1479   1.344       .  A
C1478      H1491   1.082       .  S
N1479      C1480   1.339       .  A
N1479      C1596   1.408       .  S
C1480      H1481   1.080       .  S
C1482      N1483   1.394       .  A
C1482      H1492   1.100       .  S
N1483      C2930   1.363       .  A
C1484      N2929   1.360   1_456  A
C1484      H1490   1.061       .  S
C1485      C3405   1.370       .  A
C1485      N1486   1.342       .  A
C1485      H1487   1.079       .  S
N1486      C1488   1.347       .  A
N1486      C1690   1.417       .  S
C1488      H1489   1.082       .  S
C1493      C1496   1.640       .  S
C1493      C1643   1.632       .  S
C1494      C1499   1.538       .  S
C1494      C1687   1.552       .  S
C1495      C1503   1.382       .  A
C1495      C1498   1.406   1_556  A
C1496      C1507   1.430       .  A
C1497      C1511   1.375       .  A
C1497      C1500   1.417       .  A
C1498      C1501   1.373   1_554  A
C1499      C1505   1.388       .  A
C1500      C1508   1.372       .  A
C1501      N1502   1.333       .  A
C1501      H1514   1.079   1_556  S
N1502      C1503   1.345       .  A
N1502      C1668   1.407       .  S
C1503      H1504   1.081       .  S
C1505      N1506   1.356       .  A
C1505      H1515   1.078       .  S
C1507      H1513   1.084       .  S
C1508      N1509   1.341       .  A
C1508      H1510   1.080       .  S
N1509      C1511   1.345       .  A
N1509      C1728   1.410       .  S
C1511      H1512   1.082       .  S
C1516      C1518   1.537       .  S
C1516      C1519   1.643       .  S
C1516      C1706   1.625       .  S
C1517      C1522   1.539       .  S
C1517      C1621   1.555       .  S
C1519      C1530   1.433       .  A
C1520      C1534   1.375       .  A
C1520      C1523   1.408       .  A
C1521      C1524   1.380   1_545  A
C1522      C1528   1.388       .  A
C1523      C1531   1.370       .  A
C1524      N1525   1.345       .  A
C1524      H1537   1.081   1_565  S
N1525      C1526   1.345       .  A
N1525      C1602   1.420       .  S
C1526      H1527   1.080       .  S
C1528      H1538   1.080       .  S
C1530      H1536   1.084       .  S
C1531      N1532   1.336       .  A
C1531      H1533   1.080       .  S
N1532      C1534   1.346       .  A
N1532      C1750   1.405       .  S
C1534      H1535   1.082       .  S
C1539      C1543   1.527       .  S
C1539      C1542   1.645       .  S
C1539      C1709   1.628       .  S
C1540      C3472   1.527       .  S
C1540      C1545   1.539       .  S
C1540      C1731   1.548       .  S
C1541      C1549   1.368       .  A
C1541      C1544   1.406       .  A
C1542      C1553   1.433       .  A
C1542      C2509   1.426   1_565  A
C1543      C3485   1.366       .  A
C1543      C3474   1.413   1_565  A
C1544      C3468   1.525       .  S
C1544      C1547   1.369       .  A
C1545      C2506   1.425   1_455  A
C1545      C1551   1.391       .  A
C1546      C3471   1.413   1_545  A
C1546      C1554   1.365   1_545  A
C1547      N1548   1.336       .  A
C1547      H1560   1.081       .  S
N1548      C1549   1.339       .  A
N1548      C1756   1.402       .  S
C1549      H1550   1.079       .  S
C1551      N3480   1.358   1_455  A
C1551      H1561   1.075       .  S
N1552      C3479   1.359       .  A
C1553      H1559   1.085       .  S
C1554      N1555   1.342       .  A
C1554      H1556   1.080       .  S
N1555      C1557   1.342       .  A
N1555      C1684   1.400       .  S
C1557      C3471   1.364       .  A
C1557      H1558   1.082       .  S
C1562      C3492   1.523   1_455  S
C1562      C1565   1.645   1_455  S
C1562      C1640   1.615       .  S
C1563      C3497   1.525       .  S
C1563      C1568   1.537       .  S
C1563      C1599   1.552       .  S
C1564      C3490   1.524       .  S
C1564      C1572   1.378       .  A
C1564      C1567   1.404       .  A
C1565      C1576   1.434   1_655  A
C1565      C2532   1.425       .  A
C1566      C1580   1.364       .  A
C1566      C1569   1.412   1_455  A
C1567      C1570   1.372       .  A
C1568      C2529   1.425   1_565  A
C1568      C1574   1.388       .  A
C1569      C3491   1.524       .  S
C1569      C1577   1.377       .  A
C1570      N1571   1.338       .  A
C1570      H1583   1.080       .  S
N1571      C1572   1.344       .  A
N1571      C1624   1.408       .  S
C1572      H1573   1.080       .  S
C1574      N1575   1.357       .  A
C1574      H1584   1.075       .  S
N1575      C2540   1.397   1_565  A
C1576      N2539   1.397   1_455  A
C1576      H1582   1.088       .  S
C1577      N1578   1.346   1_655  A
C1577      H1579   1.081       .  S
N1578      C1580   1.339       .  A
N1578      C1662   1.411       .  S
C1580      H1581   1.080       .  S
O1585     Cr1603   1.973       .  S
O1585      C1593   1.257       .  A
O1586     Cr1603   1.955       .  S
O1586      C1587   1.262       .  A
C1587      O1588   1.276       .  A
C1587      C1919   1.486       .  S
O1588     Cr1604   2.037       .  S
O1589     Cr1604   1.952       .  S
O1589      C1590   1.254       .  A
C1590      O1591   1.260       .  A
C1590      C1888   1.453       .  S
O1591     Cr1605   1.983       .  S
O1592     Cr1605   2.016       .  S
O1592      C1593   1.261       .  A
C1593      C1902   1.484       .  S
O1594     Cr1603   1.942       .  S
O1594      C1602   1.256       .  A
O1595     Cr1603   1.979       .  S
O1595      C1596   1.254       .  A
C1596      O1597   1.250       .  A
O1597     Cr1604   1.946       .  S
O1598     Cr1604   2.052       .  S
O1598      C1599   1.275       .  A
C1599      O1600   1.260       .  A
O1600     Cr1605   1.970       .  S
O1601     Cr1605   2.015       .  S
O1601      C1602   1.271       .  A
Cr1603     O1606   1.757       .  S
Cr1604     O1606   1.761       .  S
Cr1605     O1606   1.768       .  S
O1607     Cr1625   1.962       .  S
O1607      C1615   1.255       .  A
O1608     Cr1625   1.972       .  S
O1608      C1609   1.259       .  A
C1609      O1610   1.264       .  A
C1609      C1916   1.484       .  S
O1610     Cr1626   2.017       .  S
O1611     Cr1626   1.979       .  S
O1611      C1612   1.260       .  A
C1612      O1613   1.255       .  A
C1612      C1877   1.454       .  S
O1613     Cr1627   1.952       .  S
O1614     Cr1627   2.030       .  S
O1614      C1615   1.277       .  A
C1615      C1860   1.470       .  S
O1616     Cr1625   1.990       .  S
O1616      C1624   1.258       .  A
O1617     Cr1625   1.935       .  S
O1617      C1618   1.255       .  A
C1618      O1619   1.267       .  A
O1619     Cr1626   2.007       .  S
O1620     Cr1626   1.978       .  S
O1620      C1621   1.263       .  A
C1621      O1622   1.273       .  A
O1622     Cr1627   2.050       .  S
O1623     Cr1627   1.942       .  S
O1623      C1624   1.249       .  A
Cr1625     O1628   1.758       .  S
Cr1626     O1628   1.761       .  S
Cr1627     O1628   1.761       .  S
O1629     Cr1647   1.952       .  S
O1629      C1637   1.243       .  A
O1630     Cr1647   1.986       .  S
O1630      C1631   1.252       .  A
C1631      O1632   1.259       .  A
C1631      C1835   1.473       .  S
O1632     Cr1648   1.975       .  S
O1633     Cr1648   1.955       .  S
O1633      C1634   1.246       .  A
C1634      O1635   1.257       .  A
C1634      C1874   1.451       .  S
O1635     Cr1649   1.976       .  S
O1636     Cr1649   1.982       .  S
O1636      C1637   1.256       .  A
C1637      C1849   1.461       .  S
O1638     Cr1647   2.044       .  S
O1638      C1646   1.298       .  A
O1639     Cr1647   2.078       .  S
O1639      C1640   1.281       .  A
C1640      O1641   1.294       .  A
O1641     Cr1648   2.034       .  S
O1642     Cr1648   2.093       .  S
O1642      C1643   1.289       .  A
C1643      O1644   1.297       .  A
O1644     Cr1649   2.058       .  S
O1645     Cr1649   2.091       .  S
O1645      C1646   1.290       .  A
Cr1647     O1650   1.806       .  S
Cr1648     O1650   1.796       .  S
Cr1649     O1650   1.793       .  S
O1651     Cr1669   1.951       .  S
O1651      C1659   1.261       .  A
O1652     Cr1669   1.964       .  S
O1652      C1653   1.249       .  A
C1653      O1654   1.269       .  A
C1653      C1818   1.475       .  S
O1654     Cr1670   2.007       .  S
O1655     Cr1670   1.967       .  S
O1655      C1656   1.262       .  A
C1656      O1657   1.252       .  A
C1656      C1846   1.470       .  S
O1657     Cr1671   1.966       .  S
O1658     Cr1671   2.030       .  S
O1658      C1659   1.276       .  A
C1659      C1905   1.481       .  S
O1660     Cr1669   1.964       .  S
O1660      C1668   1.249       .  A
O1661     Cr1669   1.940       .  S
O1661      C1662   1.258       .  A
C1662      O1663   1.264       .  A
O1663     Cr1670   1.993       .  S
O1664     Cr1670   1.970       .  S
O1664      C1665   1.261       .  A
C1665      O1666   1.273       .  A
O1666     Cr1671   2.047       .  S
O1667     Cr1671   1.949       .  S
O1667      C1668   1.250       .  A
Cr1669     O1672   1.761       .  S
Cr1670     O1672   1.755       .  S
Cr1671     O1672   1.769       .  S
O1673     Cr1691   1.971       .  S
O1673      C1681   1.257       .  A
O1674     Cr1691   1.949       .  S
O1674      C1675   1.256       .  A
C1675      O1676   1.283       .  A
C1675      C1821   1.479       .  S
O1676     Cr1692   2.035       .  S
O1677     Cr1692   1.938       .  S
O1677      C1678   1.247       .  A
C1678      O1679   1.262       .  A
C1678      C1804   1.444       .  S
O1679     Cr1693   1.979       .  S
O1680     Cr1693   2.020       .  S
O1680      C1681   1.266       .  A
C1681      C1793   1.485       .  S
O1682     Cr1691   1.949       .  S
O1682      C1690   1.259       .  A
O1683     Cr1691   1.974       .  S
O1683      C1684   1.252       .  A
C1684      O1685   1.243       .  A
O1685     Cr1692   1.934       .  S
O1686     Cr1692   2.053       .  S
O1686      C1687   1.275       .  A
C1687      O1688   1.259       .  A
O1688     Cr1693   1.964       .  S
O1689     Cr1693   2.004       .  S
O1689      C1690   1.268       .  A
Cr1691     O1694   1.760       .  S
Cr1692     O1694   1.765       .  S
Cr1693     O1694   1.756       .  S
O1695     Cr1713   1.977       .  S
O1695      C1703   1.251       .  A
O1696     Cr1713   1.963       .  S
O1696      C1697   1.247       .  A
C1697      O1698   1.258       .  A
C1697      C1807   1.469       .  S
O1698     Cr1714   1.984       .  S
O1699     Cr1714   1.953       .  S
O1699      C1700   1.252       .  A
C1700      O1701   1.251       .  A
C1700      C1891   1.463       .  S
O1701     Cr1715   1.979       .  S
O1702     Cr1715   1.957       .  S
O1702      C1703   1.253       .  A
C1703      C1779   1.464       .  S
O1704     Cr1713   2.035       .  S
O1704      C1712   1.296       .  A
O1705     Cr1713   2.097       .  S
O1705      C1706   1.289       .  A
C1706      O1707   1.295       .  A
O1707     Cr1714   2.043       .  S
O1708     Cr1714   2.097       .  S
O1708      C1709   1.289       .  A
C1709      O1710   1.296       .  A
O1710     Cr1715   2.050       .  S
O1711     Cr1715   2.081       .  S
O1711      C1712   1.285       .  A
Cr1713     O1716   1.805       .  S
Cr1714     O1716   1.795       .  S
Cr1715     O1716   1.802       .  S
O1717     Cr1735   1.983       .  S
O1717      C1725   1.260       .  A
O1718     Cr1735   1.935       .  S
O1718      C1719   1.258       .  A
C1719      O1720   1.276       .  A
C1719      C1762   1.479       .  S
O1720     Cr1736   2.038       .  S
O1721     Cr1736   1.955       .  S
O1721      C1722   1.253       .  A
C1722      O1723   1.260       .  A
C1722      C1832   1.447       .  S
O1723     Cr1737   1.973       .  S
O1724     Cr1737   2.000       .  S
O1724      C1725   1.266       .  A
C1725      C1790   1.468       .  S
O1726     Cr1735   1.948       .  S
O1726      C1734   1.254       .  A
O1727     Cr1735   1.975       .  S
O1727      C1728   1.254       .  A
C1728      O1729   1.248       .  A
O1729     Cr1736   1.948       .  S
O1730     Cr1736   2.048       .  S
O1730      C1731   1.272       .  A
C1731      O1732   1.260       .  A
O1732     Cr1737   1.965       .  S
O1733     Cr1737   1.978       .  S
O1733      C1734   1.261       .  A
Cr1735     O1738   1.762       .  S
Cr1736     O1738   1.776       .  S
Cr1737     O1738   1.761       .  S
O1739     Cr1757   1.979       .  S
O1739      C1747   1.254       .  A
O1740     Cr1757   1.946       .  S
O1740      C1741   1.259       .  A
C1741      O1742   1.276       .  A
C1741      C1765   1.463       .  S
O1742     Cr1758   2.035       .  S
O1743     Cr1758   1.951       .  S
O1743      C1744   1.254       .  A
C1744      O1745   1.259       .  A
C1744      C1776   1.448       .  S
O1745     Cr1759   1.980       .  S
O1746     Cr1759   1.999       .  S
O1746      C1747   1.266       .  A
C1747      C1863   1.468       .  S
O1748     Cr1757   1.933       .  S
O1748      C1756   1.253       .  A
O1749     Cr1757   1.971       .  S
O1749      C1750   1.251       .  A
C1750      O1751   1.250       .  A
O1751     Cr1758   1.948       .  S
O1752     Cr1758   2.058       .  S
O1752      C1753   1.276       .  A
C1753      O1754   1.260       .  A
O1754     Cr1759   1.974       .  S
O1755     Cr1759   1.975       .  S
O1755      C1756   1.264       .  A
Cr1757     O1760   1.763       .  S
Cr1758     O1760   1.761       .  S
Cr1759     O1760   1.757       .  S
C1761      C1762   1.411       .  A
C1761      C1766   1.394       .  A
C1761      H1768   1.078       .  S
C1762      C1763   1.412       .  A
C1763      C1764   1.392       .  A
C1763      N1770   1.427       .  S
C1764      C1765   1.401       .  A
C1764      H1769   1.081       .  S
C1765      C1766   1.404       .  A
C1766      N1767   1.428       .  S
N1767      O1771   1.262       .  A
N1767      O1772   1.262       .  A
N1770      O1774   1.262       .  A
N1770      O1773   1.262       .  A
C1775      C1776   1.396       .  A
C1775      C1780   1.385       .  A
C1775      H1782   1.081       .  S
C1776      C1777   1.404       .  A
C1777      C1778   1.387       .  A
C1777      N1784   1.428       .  S
C1778      C1779   1.404       .  A
C1778      H1783   1.076       .  S
C1779      C1780   1.415       .  A
C1780      N1781   1.429       .  S
N1781      O1785   1.261       .  A
N1781      O1786   1.260       .  A
N1784      O1788   1.262       .  A
N1784      O1787   1.262       .  A
C1789      C1790   1.404       .  A
C1789      C1794   1.399       .  A
C1789      H1796   1.079       .  S
C1790      C1791   1.405       .  A
C1791      C1792   1.394       .  A
C1791      N1798   1.428       .  S
C1792      C1793   1.412       .  A
C1792      H1797   1.079       .  S
C1793      C1794   1.409       .  A
C1794      N1795   1.426       .  S
N1795      O1799   1.262       .  A
N1795      O1800   1.262       .  A
N1798      O1802   1.262       .  A
N1798      O1801   1.262       .  A
C1803      C1804   1.387       .  A
C1803      C1808   1.386       .  A
C1803      H1810   1.081       .  S
C1804      C1805   1.410       .  A
C1805      C1806   1.387       .  A
C1805      N1812   1.428       .  S
C1806      C1807   1.400       .  A
C1806      H1811   1.080       .  S
C1807      C1808   1.417       .  A
C1808      N1809   1.421       .  S
N1809      O1813   1.262       .  A
N1809      O1814   1.262       .  A
N1812      O1816   1.262       .  A
N1812      O1815   1.262       .  A
C1817      C1818   1.394       .  A
C1817      C1822   1.396       .  A
C1817      H1824   1.080       .  S
C1818      C1819   1.424       .  A
C1819      C1820   1.389       .  A
C1819      N1826   1.430       .  S
C1820      C1821   1.394       .  A
C1820      H1825   1.080       .  S
C1821      C1822   1.422       .  A
C1822      N1823   1.426       .  S
N1823      O1827   1.262       .  A
N1823      O1828   1.261       .  A
N1826      O1830   1.262       .  A
N1826      O1829   1.262       .  A
C1831      C1832   1.392       .  A
C1831      C1836   1.393       .  A
C1831      H1838   1.081       .  S
C1832      C1833   1.405       .  A
C1833      C1834   1.383       .  A
C1833      N1840   1.427       .  S
C1834      C1835   1.403       .  A
C1834      H1839   1.080       .  S
C1835      C1836   1.417       .  A
C1836      N1837   1.422       .  S
N1837      O1841   1.261       .  A
N1837      O1842   1.262       .  A
N1840      O1844   1.262       .  A
N1840      O1843   1.262       .  A
C1845      C1846   1.400       .  A
C1845      C1850   1.380       .  A
C1845      H1852   1.080       .  S
C1846      C1847   1.416       .  A
C1847      C1848   1.393       .  A
C1847      N1854   1.427       .  S
C1848      C1849   1.398       .  A
C1848      H1853   1.080       .  S
C1849      C1850   1.416       .  A
C1850      N1851   1.432       .  S
N1851      O1855   1.259       .  A
N1851      O1856   1.261       .  A
N1854      O1858   1.261       .  A
N1854      O1857   1.262       .  A
C1859      C1860   1.396       .  A
C1859      C1864   1.389       .  A
C1859      H1866   1.081       .  S
C1860      C1861   1.416       .  A
C1861      C1862   1.400       .  A
C1861      N1868   1.426       .  S
C1862      C1863   1.397       .  A
C1862      H1867   1.080       .  S
C1863      C1864   1.417       .  A
C1864      N1865   1.429       .  S
N1865      O1869   1.262       .  A
N1865      O1870   1.262       .  A
N1868      O1872   1.262       .  A
N1868      O1871   1.261       .  A
C1873      C1874   1.396       .  A
C1873      C1878   1.382       .  A
C1873      H1880   1.080       .  S
C1874      C1875   1.410       .  A
C1875      C1876   1.390       .  A
C1875      N1882   1.428       .  S
C1876      C1877   1.402       .  A
C1876      H1881   1.080       .  S
C1877      C1878   1.408       .  A
C1878      N1879   1.427       .  S
N1879      O1883   1.261       .  A
N1879      O1884   1.262       .  A
N1882      O1886   1.262       .  A
N1882      O1885   1.262       .  A
C1887      C1888   1.398       .  A
C1887      C1892   1.387       .  A
C1887      H1894   1.081       .  S
C1888      C1889   1.406       .  A
C1889      C1890   1.386       .  A
C1889      N1896   1.427       .  S
C1890      C1891   1.403       .  A
C1890      H1895   1.080       .  S
C1891      C1892   1.414       .  A
C1892      N1893   1.428       .  S
N1893      O1897   1.262       .  A
N1893      O1898   1.262       .  A
N1896      O1900   1.262       .  A
N1896      O1899   1.262       .  A
C1901      C1902   1.407       .  A
C1901      C1906   1.388       .  A
C1901      H1908   1.080       .  S
C1902      C1903   1.412       .  A
C1903      C1904   1.401       .  A
C1903      N1910   1.427       .  S
C1904      C1905   1.409       .  A
C1904      H1909   1.078       .  S
C1905      C1906   1.408       .  A
C1906      N1907   1.427       .  S
N1907      O1911   1.262       .  A
N1907      O1912   1.262       .  A
N1910      O1914   1.262       .  A
N1910      O1913   1.262       .  A
C1915      C1916   1.407       .  A
C1915      C1920   1.392       .  A
C1915      H1922   1.080       .  S
C1916      C1917   1.410       .  A
C1917      C1918   1.400       .  A
C1917      N1924   1.426       .  S
C1918      C1919   1.410       .  A
C1918      H1923   1.080       .  S
C1919      C1920   1.411       .  A
C1920      N1921   1.428       .  S
N1921      O1925   1.262       .  A
N1921      O1926   1.262       .  A
N1924      O1928   1.262       .  A
N1924      O1927   1.262       .  A
C1929      C2413   1.530       .  S
C1929      C1932   1.532       .  S
C1929      C2235   1.550       .  S
C1930      C2418   1.523       .  S
C1930      C1935   1.648       .  S
C1930      C2128   1.627       .  S
C1931      C2411   1.526       .  S
C1931      C1939   1.376       .  A
C1931      C1934   1.414       .  A
C1932      C1943   1.392       .  A
C1933      C1947   1.372       .  A
C1933      C1936   1.399       .  A
C1934      C1937   1.362       .  A
C1935      C1941   1.432       .  A
C1936      C2412   1.521   1_554  S
C1936      C1944   1.370       .  A
C1937      N1938   1.343       .  A
C1937      H1950   1.081       .  S
N1938      C1939   1.345       .  A
N1938      C2100   1.410       .  S
C1939      H1940   1.081       .  S
C1941      H1951   1.103       .  S
N1942      C1943   1.360       .  A
N1942      N1965   1.456       .  S
C1943      H1949   1.057       .  S
C1944      N1945   1.341       .  A
C1944      H1946   1.079       .  S
N1945      C1947   1.343       .  A
N1945      C2216   1.407       .  S
C1947      H1948   1.080       .  S
C1952      C2438   1.527       .  S
C1952      C1955   1.538       .  S
C1952      C2147   1.553       .  S
C1953      C1957   1.521   1_554  S
C1953      C1959   1.533   1_655  S
C1953      C1958   1.654       .  S
C1953      C2194   1.623       .  S
C1954      C1962   1.371       .  A
C1954      C2439   1.402       .  A
C1955      C1966   1.392       .  A
C1956      C2434   1.527       .  S
C1956      C1970   1.381   1_556  A
C1957      C2436   1.401       .  A
C1957      C2442   1.377       .  A
C1958      C1964   1.437       .  A
C1960      C2439   1.374       .  A
C1960      N1961   1.344       .  A
C1960      H1973   1.082       .  S
N1961      C1962   1.339       .  A
N1961      C2078   1.406       .  S
C1962      H1963   1.080       .  S
C1964      N1965   1.397       .  A
C1964      H1974   1.098       .  S
C1966      H1972   1.060       .  S
C1967      N1968   1.341       .  A
C1967      H1969   1.080       .  S
N1968      C1970   1.348       .  A
N1968      C2172   1.417       .  S
C1970      H1971   1.081   1_554  S
C1975      C2941   1.534   1_545  S
C1975      C2461   1.536       .  S
C1975      C1978   1.643       .  S
C1975      C2125   1.636       .  S
C1976      C2462   1.524       .  S
C1976      C2946   1.521       .  S
C1976      C1981   1.540       .  S
C1976      C2169   1.556       .  S
C1977      C2939   1.536       .  S
C1977      C1985   1.383       .  A
C1977      C1980   1.408       .  A
C1978      C1989   1.430       .  A
C1978      C3427   1.427   1_545  A
C1979      C2457   1.536   1_554  S
C1979      C1993   1.376       .  A
C1979      C1982   1.415   1_545  A
C1980      C2458   1.526       .  S
C1980      C1983   1.372       .  A
C1981      C3424   1.427   1_554  A
C1981      C1987   1.390       .  A
C1982      C2940   1.522       .  S
C1982      C1990   1.374       .  A
C1983      N1984   1.332       .  A
C1983      H1996   1.079       .  S
N1984      C1985   1.345       .  A
N1984      C2150   1.408       .  S
C1985      H1986   1.081       .  S
C1987      N1988   1.357       .  A
C1987      H1997   1.077       .  S
N1988      C3435   1.397   1_554  A
N1988      N2975   1.452       .  S
C1989      N3434   1.397   1_545  A
C1989      H1995   1.085       .  S
C1990      N1991   1.341   1_565  A
C1990      H1992   1.079       .  S
N1991      C1993   1.345       .  A
N1991      C2210   1.414       .  S
C1993      H1994   1.082       .  S
C1998      C2000   1.538   1_554  S
C1998      C2966   1.523       .  S
C1998      C2001   1.645       .  S
C1998      C2188   1.625       .  S
C1999      C2967   1.525       .  S
C1999      C2487   1.532       .  S
C1999      C2004   1.536       .  S
C1999      C2103   1.554       .  S
C2000      C2490   1.370       .  A
C2000      C2485   1.415       .  A
C2001      C2012   1.435       .  A
C2001      C3450   1.425   1_554  A
C2002      C2962   1.527   1_545  S
C2002      C2016   1.379       .  A
C2002      C2005   1.404       .  A
C2003      C2963   1.522       .  S
C2003      C2482   1.415       .  A
C2003      C2006   1.377       .  A
C2004      C3447   1.424   1_545  A
C2004      C2010   1.386       .  A
C2005      C2481   1.529   1_554  S
C2005      C2013   1.370       .  A
C2006      N2007   1.345       .  A
C2006      H2019   1.080       .  S
N2007      C2008   1.345       .  A
N2007      C2084   1.417       .  S
C2008      C2482   1.368       .  A
C2008      H2009   1.082       .  S
C2010      N2493   1.356       .  A
C2010      H2020   1.079       .  S
N2011      C2492   1.356   1_564  A
N2011      C2976   1.398       .  A
N2011      N2952   1.453       .  S
C2012      N2975   1.398       .  A
C2012      H2018   1.083       .  S
C2013      N2014   1.334       .  A
C2013      H2015   1.081       .  S
N2014      C2016   1.347       .  A
N2014      C2232   1.405       .  S
C2016      H2017   1.081       .  S
C2021      C2987   1.528       .  S
C2021      C2025   1.528   1_655  S
C2021      C2024   1.647       .  S
C2021      C2191   1.629       .  S
C2022      C2992   1.519       .  S
C2022      C2027   1.531       .  S
C2022      C2213   1.542       .  S
C2023      C2985   1.526   1_545  S
C2023      C2031   1.368       .  A
C2023      C2026   1.407   1_655  A
C2024      C2035   1.434       .  A
C2026      C2029   1.371   1_455  A
C2027      C2033   1.387       .  A
C2028      C2986   1.522       .  S
C2028      C2036   1.372       .  A
C2029      N2030   1.337       .  A
C2029      H2042   1.081       .  S
N2030      C2031   1.341       .  A
N2030      C2238   1.403       .  S
C2031      H2032   1.080       .  S
C2033      H2043   1.077       .  S
N2034      C2999   1.401       .  A
N2034      N3021   1.456       .  S
C2035      N2998   1.398       .  A
C2035      H2041   1.086       .  S
C2036      N2037   1.344       .  A
C2036      H2038   1.080       .  S
N2037      C2039   1.344       .  A
N2037      C2166   1.410       .  S
C2039      H2040   1.082       .  S
C2044      C3012   1.526   1_545  S
C2044      C2047   1.654       .  S
C2044      C2122   1.627       .  S
C2045      C3013   1.532       .  S
C2045      C2050   1.536       .  S
C2045      C2081   1.549       .  S
C2046      C2054   1.377       .  A
C2046      C2049   1.400   1_545  A
C2047      C2058   1.438       .  A
C2048      C3008   1.528       .  S
C2048      C2062   1.364       .  A
C2048      C2051   1.411       .  A
C2049      C3009   1.532       .  S
C2049      C2052   1.373   1_565  A
C2050      C2056   1.388       .  A
C2051      C2059   1.377       .  A
C2052      N2053   1.340       .  A
C2052      H2065   1.081       .  S
N2053      C2054   1.345       .  A
N2053      C2106   1.410       .  S
C2054      H2055   1.081       .  S
C2056      N2057   1.356       .  A
C2056      H2066   1.075       .  S
N2057      N2998   1.454       .  S
C2058      H2064   1.088       .  S
C2059      N2060   1.346       .  A
C2059      H2061   1.081       .  S
N2060      C2062   1.339       .  A
N2060      C2144   1.410       .  S
C2062      H2063   1.081       .  S
O2067     Cr2085   1.971       .  S
O2067      C2075   1.257       .  A
O2068     Cr2085   1.956       .  S
O2068      C2069   1.262       .  A
C2069      O2070   1.277       .  A
C2069      C2401   1.487       .  S
O2070     Cr2086   2.038       .  S
O2071     Cr2086   1.953       .  S
O2071      C2072   1.254       .  A
C2072      O2073   1.259       .  A
C2072      C2370   1.453       .  S
O2073     Cr2087   1.978       .  S
O2074     Cr2087   2.005       .  S
O2074      C2075   1.259       .  A
C2075      C2384   1.474       .  S
O2076     Cr2085   1.939       .  S
O2076      C2084   1.256       .  A
O2077     Cr2085   1.976       .  S
O2077      C2078   1.253       .  A
C2078      O2079   1.250       .  A
O2079     Cr2086   1.945       .  S
O2080     Cr2086   2.056       .  S
O2080      C2081   1.276       .  A
C2081      O2082   1.257       .  A
O2082     Cr2087   1.960       .  S
O2083     Cr2087   2.009       .  S
O2083      C2084   1.269       .  A
Cr2085     O2088   1.758       .  S
Cr2086     O2088   1.760       .  S
Cr2087     O2088   1.768       .  S
O2089     Cr2107   1.944       .  S
O2089      C2097   1.252       .  A
O2090     Cr2107   1.978       .  S
O2090      C2091   1.261       .  A
C2091      O2092   1.264       .  A
C2091      C2398   1.487       .  S
O2092     Cr2108   2.016       .  S
O2093     Cr2108   1.973       .  S
O2093      C2094   1.258       .  A
C2094      O2095   1.257       .  A
C2094      C2359   1.457       .  S
O2095     Cr2109   1.958       .  S
O2096     Cr2109   2.033       .  S
O2096      C2097   1.281       .  A
C2097      C2342   1.479       .  S
O2098     Cr2107   1.987       .  S
O2098      C2106   1.257       .  A
O2099     Cr2107   1.925       .  S
O2099      C2100   1.252       .  A
C2100      O2101   1.266       .  A
O2101     Cr2108   2.004       .  S
O2102     Cr2108   1.970       .  S
O2102      C2103   1.261       .  A
C2103      O2104   1.274       .  A
O2104     Cr2109   2.053       .  S
O2105     Cr2109   1.946       .  S
O2105      C2106   1.249       .  A
Cr2107     O2110   1.757       .  S
Cr2108     O2110   1.760       .  S
Cr2109     O2110   1.759       .  S
O2111     Cr2129   1.957       .  S
O2111      C2119   1.244       .  A
O2112     Cr2129   1.987       .  S
O2112      C2113   1.254       .  A
C2113      O2114   1.257       .  A
C2113      C2317   1.470       .  S
O2114     Cr2130   1.971       .  S
O2115     Cr2130   1.959       .  S
O2115      C2116   1.247       .  A
C2116      O2117   1.257       .  A
C2116      C2356   1.457       .  S
O2117     Cr2131   1.977       .  S
O2118     Cr2131   1.982       .  S
O2118      C2119   1.254       .  A
C2119      C2331   1.464       .  S
O2120     Cr2129   2.049       .  S
O2120      C2128   1.299       .  A
O2121     Cr2129   2.085       .  S
O2121      C2122   1.282       .  A
C2122      O2123   1.298       .  A
O2123     Cr2130   2.043       .  S
O2124     Cr2130   2.095       .  S
O2124      C2125   1.290       .  A
C2125      O2126   1.297       .  A
O2126     Cr2131   2.060       .  S
O2127     Cr2131   2.098       .  S
O2127      C2128   1.292       .  A
Cr2129     O2132   1.807       .  S
Cr2130     O2132   1.798       .  S
Cr2131     O2132   1.799       .  S
O2133     Cr2151   1.943       .  S
O2133      C2141   1.259       .  A
O2134     Cr2151   1.964       .  S
O2134      C2135   1.250       .  A
C2135      O2136   1.268       .  A
C2135      C2300   1.474       .  S
O2136     Cr2152   2.005       .  S
O2137     Cr2152   1.965       .  S
O2137      C2138   1.262       .  A
C2138      O2139   1.253       .  A
C2138      C2328   1.473       .  S
O2139     Cr2153   1.974       .  S
O2140     Cr2153   2.037       .  S
O2140      C2141   1.276       .  A
C2141      C2387   1.482       .  S
O2142     Cr2151   1.965       .  S
O2142      C2150   1.251       .  A
O2143     Cr2151   1.938       .  S
O2143      C2144   1.256       .  A
C2144      O2145   1.263       .  A
O2145     Cr2152   1.993       .  S
O2146     Cr2152   1.976       .  S
O2146      C2147   1.263       .  A
C2147      O2148   1.276       .  A
O2148     Cr2153   2.054       .  S
O2149     Cr2153   1.947       .  S
O2149      C2150   1.250       .  A
Cr2151     O2154   1.761       .  S
Cr2152     O2154   1.754       .  S
Cr2153     O2154   1.770       .  S
O2155     Cr2173   1.980       .  S
O2155      C2163   1.260       .  A
O2156     Cr2173   1.943       .  S
O2156      C2157   1.253       .  A
C2157      O2158   1.282       .  A
C2157      C2303   1.478       .  S
O2158     Cr2174   2.033       .  S
O2159     Cr2174   1.951       .  S
O2159      C2160   1.250       .  A
C2160      O2161   1.263       .  A
C2160      C2286   1.457       .  S
O2161     Cr2175   1.981       .  S
O2162     Cr2175   2.021       .  S
O2162      C2163   1.268       .  A
C2163      C2275   1.490       .  S
O2164     Cr2173   1.944       .  S
O2164      C2172   1.257       .  A
O2165     Cr2173   1.984       .  S
O2165      C2166   1.255       .  A
C2166      O2167   1.246       .  A
O2167     Cr2174   1.945       .  S
O2168     Cr2174   2.053       .  S
O2168      C2169   1.275       .  A
C2169      O2170   1.262       .  A
O2170     Cr2175   1.974       .  S
O2171     Cr2175   2.004       .  S
O2171      C2172   1.266       .  A
Cr2173     O2176   1.762       .  S
Cr2174     O2176   1.767       .  S
Cr2175     O2176   1.757       .  S
O2177     Cr2195   1.966       .  S
O2177      C2185   1.248       .  A
O2178     Cr2195   1.960       .  S
O2178      C2179   1.247       .  A
C2179      O2180   1.259       .  A
C2179      C2289   1.470       .  S
O2180     Cr2196   1.987       .  S
O2181     Cr2196   1.954       .  S
O2181      C2182   1.252       .  A
C2182      O2183   1.251       .  A
C2182      C2373   1.464       .  S
O2183     Cr2197   1.979       .  S
O2184     Cr2197   1.961       .  S
O2184      C2185   1.254       .  A
C2185      C2261   1.461       .  S
O2186     Cr2195   2.037       .  S
O2186      C2194   1.298       .  A
O2187     Cr2195   2.090       .  S
O2187      C2188   1.286       .  A
C2188      O2189   1.296       .  A
O2189     Cr2196   2.046       .  S
O2190     Cr2196   2.098       .  S
O2190      C2191   1.290       .  A
C2191      O2192   1.296       .  A
O2192     Cr2197   2.051       .  S
O2193     Cr2197   2.085       .  S
O2193      C2194   1.286       .  A
Cr2195     O2198   1.804       .  S
Cr2196     O2198   1.797       .  S
Cr2197     O2198   1.803       .  S
O2199     Cr2217   1.987       .  S
O2199      C2207   1.262       .  A
O2200     Cr2217   1.926       .  S
O2200      C2201   1.255       .  A
C2201      O2202   1.275       .  A
C2201      C2244   1.466       .  S
O2202     Cr2218   2.040       .  S
O2203     Cr2218   1.958       .  S
O2203      C2204   1.253       .  A
C2204      O2205   1.261       .  A
C2204      C2314   1.452       .  S
O2205     Cr2219   1.971       .  S
O2206     Cr2219   2.005       .  S
O2206      C2207   1.266       .  A
C2207      C2272   1.475       .  S
O2208     Cr2217   1.946       .  S
O2208      C2216   1.254       .  A
O2209     Cr2217   1.981       .  S
O2209      C2210   1.255       .  A
C2210      O2211   1.248       .  A
O2211     Cr2218   1.951       .  S
O2212     Cr2218   2.046       .  S
O2212      C2213   1.273       .  A
C2213      O2214   1.258       .  A
O2214     Cr2219   1.960       .  S
O2215     Cr2219   1.980       .  S
O2215      C2216   1.261       .  A
Cr2217     O2220   1.757       .  S
Cr2218     O2220   1.779       .  S
Cr2219     O2220   1.757       .  S
O2221     Cr2239   1.962       .  S
O2221      C2229   1.249       .  A
O2222     Cr2239   1.940       .  S
O2222      C2223   1.258       .  A
C2223      O2224   1.273       .  A
C2223      C2247   1.473       .  S
O2224     Cr2240   2.029       .  S
O2225     Cr2240   1.955       .  S
O2225      C2226   1.256       .  A
C2226      O2227   1.259       .  A
C2226      C2258   1.446       .  S
O2227     Cr2241   1.978       .  S
O2228     Cr2241   2.012       .  S
O2228      C2229   1.269       .  A
C2229      C2345   1.477       .  S
O2230     Cr2239   1.928       .  S
O2230      C2238   1.253       .  A
O2231     Cr2239   1.968       .  S
O2231      C2232   1.251       .  A
C2232      O2233   1.252       .  A
O2233     Cr2240   1.949       .  S
O2234     Cr2240   2.041       .  S
O2234      C2235   1.271       .  A
C2235      O2236   1.264       .  A
O2236     Cr2241   1.985       .  S
O2237     Cr2241   1.984       .  S
O2237      C2238   1.265       .  A
Cr2239     O2242   1.758       .  S
Cr2240     O2242   1.761       .  S
Cr2241     O2242   1.757       .  S
C2243      C2244   1.405       .  A
C2243      C2248   1.388       .  A
C2243      H2250   1.080       .  S
C2244      C2245   1.404       .  A
C2245      C2246   1.392       .  A
C2245      N2252   1.427       .  S
C2246      C2247   1.409       .  A
C2246      H2251   1.076       .  S
C2247      C2248   1.409       .  A
C2248      N2249   1.428       .  S
N2249      O2253   1.262       .  A
N2249      O2254   1.262       .  A
N2252      O2256   1.262       .  A
N2252      O2255   1.262       .  A
C2257      C2258   1.396       .  A
C2257      C2262   1.385       .  A
C2257      H2264   1.081       .  S
C2258      C2259   1.405       .  A
C2259      C2260   1.386       .  A
C2259      N2266   1.428       .  S
C2260      C2261   1.400       .  A
C2260      H2265   1.071       .  S
C2261      C2262   1.415       .  A
C2262      N2263   1.430       .  S
N2263      O2267   1.261       .  A
N2263      O2268   1.261       .  A
N2266      O2270   1.262       .  A
N2266      O2269   1.262       .  A
C2271      C2272   1.405       .  A
C2271      C2276   1.401       .  A
C2271      H2278   1.081       .  S
C2272      C2273   1.406       .  A
C2273      C2274   1.398       .  A
C2273      N2280   1.428       .  S
C2274      C2275   1.411       .  A
C2274      H2279   1.078       .  S
C2275      C2276   1.410       .  A
C2276      N2277   1.426       .  S
N2277      O2281   1.262       .  A
N2277      O2282   1.262       .  A
N2280      O2284   1.262       .  A
N2280      O2283   1.262       .  A
C2285      C2286   1.393       .  A
C2285      C2290   1.388       .  A
C2285      H2292   1.081       .  S
C2286      C2287   1.412       .  A
C2287      C2288   1.390       .  A
C2287      N2294   1.427       .  S
C2288      C2289   1.400       .  A
C2288      H2293   1.080       .  S
C2289      C2290   1.416       .  A
C2290      N2291   1.424       .  S
N2291      O2295   1.262       .  A
N2291      O2296   1.262       .  A
N2294      O2298   1.262       .  A
N2294      O2297   1.262       .  A
C2299      C2300   1.394       .  A
C2299      C2304   1.396       .  A
C2299      H2306   1.080       .  S
C2300      C2301   1.423       .  A
C2301      C2302   1.388       .  A
C2301      N2308   1.429       .  S
C2302      C2303   1.393       .  A
C2302      H2307   1.080       .  S
C2303      C2304   1.423       .  A
C2304      N2305   1.426       .  S
N2305      O2309   1.262       .  A
N2305      O2310   1.262       .  A
N2308      O2312   1.262       .  A
N2308      O2311   1.261       .  A
C2313      C2314   1.396       .  A
C2313      C2318   1.390       .  A
C2313      H2320   1.081       .  S
C2314      C2315   1.407       .  A
C2315      C2316   1.387       .  A
C2315      N2322   1.428       .  S
C2316      C2317   1.404       .  A
C2316      H2321   1.080       .  S
C2317      C2318   1.412       .  A
C2318      N2319   1.423       .  S
N2319      O2323   1.262       .  A
N2319      O2324   1.262       .  A
N2322      O2326   1.262       .  A
N2322      O2325   1.262       .  A
C2327      C2328   1.399       .  A
C2327      C2332   1.380       .  A
C2327      H2334   1.081       .  S
C2328      C2329   1.415       .  A
C2329      C2330   1.396       .  A
C2329      N2336   1.427       .  S
C2330      C2331   1.401       .  A
C2330      H2335   1.080       .  S
C2331      C2332   1.416       .  A
C2332      N2333   1.431       .  S
N2333      O2337   1.260       .  A
N2333      O2338   1.262       .  A
N2336      O2340   1.262       .  A
N2336      O2339   1.262       .  A
C2341      C2342   1.392       .  A
C2341      C2346   1.387       .  A
C2341      H2348   1.080       .  S
C2342      C2343   1.424       .  A
C2343      C2344   1.399       .  A
C2343      N2350   1.427       .  S
C2344      C2345   1.395       .  A
C2344      H2349   1.080       .  S
C2345      C2346   1.424       .  A
C2346      N2347   1.429       .  S
N2347      O2351   1.262       .  A
N2347      O2352   1.262       .  A
N2350      O2354   1.262       .  A
N2350      O2353   1.262       .  A
C2355      C2356   1.398       .  A
C2355      C2360   1.383       .  A
C2355      H2362   1.081       .  S
C2356      C2357   1.411       .  A
C2357      C2358   1.390       .  A
C2357      N2364   1.427       .  S
C2358      C2359   1.400       .  A
C2358      H2363   1.080       .  S
C2359      C2360   1.410       .  A
C2360      N2361   1.428       .  S
N2361      O2365   1.262       .  A
N2361      O2366   1.262       .  A
N2364      O2368   1.262       .  A
N2364      O2367   1.261       .  A
C2369      C2370   1.397       .  A
C2369      C2374   1.388       .  A
C2369      H2376   1.080       .  S
C2370      C2371   1.406       .  A
C2371      C2372   1.386       .  A
C2371      N2378   1.427       .  S
C2372      C2373   1.402       .  A
C2372      H2377   1.080       .  S
C2373      C2374   1.415       .  A
C2374      N2375   1.429       .  S
N2375      O2379   1.262       .  A
N2375      O2380   1.262       .  A
N2378      O2382   1.262       .  A
N2378      O2381   1.262       .  A
C2383      C2384   1.406       .  A
C2383      C2388   1.389       .  A
C2383      H2390   1.080       .  S
C2384      C2385   1.407       .  A
C2385      C2386   1.397       .  A
C2385      N2392   1.428       .  S
C2386      C2387   1.410       .  A
C2386      H2391   1.065       .  S
C2387      C2388   1.408       .  A
C2388      N2389   1.426       .  S
N2389      O2393   1.262       .  A
N2389      O2394   1.262       .  A
N2392      O2396   1.262       .  A
N2392      O2395   1.262       .  A
C2397      C2398   1.406       .  A
C2397      C2402   1.391       .  A
C2397      H2404   1.080       .  S
C2398      C2399   1.412       .  A
C2399      C2400   1.403       .  A
C2399      N2406   1.427       .  S
C2400      C2401   1.411       .  A
C2400      H2405   1.080       .  S
C2401      C2402   1.411       .  A
C2402      N2403   1.428       .  S
N2403      O2407   1.262       .  A
N2403      O2408   1.262       .  A
N2406      O2410   1.262       .  A
N2406      O2409   1.262       .  A
C2411      C2414   1.537       .  S
C2411      C2717   1.557       .  S
C2412      C2417   1.654   1_556  S
C2412      C2610   1.626       .  S
C2413      C2421   1.378       .  A
C2413      C2416   1.415   1_554  A
C2414      C2425   1.392       .  A
C2415      C2429   1.371       .  A
C2415      C2418   1.404       .  A
C2416      C2419   1.359       .  A
C2417      C2423   1.436   1_554  A
C2418      C2426   1.371       .  A
C2419      N2420   1.341       .  A
C2419      H2432   1.082       .  S
N2420      C2421   1.347   1_556  A
N2420      C2582   1.410       .  S
C2421      H2422   1.081       .  S
C2423      H2433   1.103       .  S
N2424      C2425   1.362       .  A
N2424      N2447   1.455   1_655  S
C2425      H2431   1.056       .  S
C2426      N2427   1.341       .  A
C2426      H2428   1.080       .  S
N2427      C2429   1.343       .  A
N2427      C2698   1.408       .  S
C2429      H2430   1.080       .  S
C2434      C2437   1.536       .  S
C2434      C2629   1.551       .  S
C2435      C2439   1.519       .  S
C2435      C2441   1.533   1_655  S
C2435      C2440   1.652       .  S
C2435      C2676   1.624       .  S
C2436      C2444   1.372       .  A
C2437      C2448   1.391       .  A
C2438      C2452   1.379       .  A
C2440      C2446   1.435       .  A
C2442      N2443   1.345       .  A
C2442      H2455   1.082       .  S
N2443      C2444   1.337       .  A
N2443      C2560   1.408       .  S
C2444      H2445   1.080       .  S
C2446      N2447   1.395   1_655  A
C2446      H2456   1.101       .  S
C2448      H2454   1.062       .  S
C2449      N2450   1.341       .  A
C2449      H2451   1.081       .  S
N2450      C2452   1.347       .  A
N2450      C2654   1.418       .  S
C2452      H2453   1.080       .  S
C2457      C3423   1.534   1_545  S
C2457      C2460   1.645       .  S
C2457      C2607   1.634       .  S
C2458      C3428   1.522       .  S
C2458      C2463   1.541       .  S
C2458      C2651   1.559       .  S
C2459      C3421   1.535       .  S
C2459      C2467   1.381       .  A
C2459      C2462   1.408   1_556  A
C2460      C2471   1.433       .  A
C2460      C2945   1.427   1_546  A
C2461      C2475   1.376       .  A
C2461      C2464   1.417   1_545  A
C2462      C2465   1.370   1_554  A
C2463      C2942   1.427       .  A
C2463      C2469   1.389       .  A
C2464      C3422   1.521       .  S
C2464      C2472   1.372   1_565  A
C2465      N2466   1.332       .  A
C2465      H2478   1.079   1_556  S
N2466      C2467   1.344       .  A
N2466      C2632   1.405       .  S
C2467      H2468   1.081       .  S
C2469      N2470   1.357       .  A
C2469      H2479   1.078       .  S
N2470      C2953   1.397       .  A
N2470      N3457   1.452       .  S
C2471      N2952   1.398   1_546  A
C2471      H2477   1.085       .  S
C2472      N2473   1.340       .  A
C2472      H2474   1.080   1_545  S
N2473      C2475   1.345       .  A
N2473      C2692   1.411       .  S
C2475      H2476   1.082       .  S
C2480      C2482   1.539       .  S
C2480      C3448   1.526       .  S
C2480      C2483   1.647       .  S
C2480      C2670   1.633       .  S
C2481      C3449   1.524       .  S
C2481      C2486   1.537       .  S
C2481      C2585   1.555       .  S
C2483      C2494   1.435       .  A
C2483      C2968   1.426       .  A
C2484      C3444   1.529   1_545  S
C2484      C2498   1.381       .  A
C2484      C2487   1.405       .  A
C2485      C3445   1.523       .  S
C2485      C2488   1.377       .  A
C2486      C2965   1.425   1_546  A
C2486      C2492   1.387       .  A
C2487      C2495   1.373       .  A
C2488      N2489   1.345       .  A
C2488      H2501   1.081       .  S
N2489      C2490   1.344       .  A
N2489      C2566   1.418       .  S
C2490      H2491   1.080       .  S
C2492      H2502   1.080       .  S
N2493      C3458   1.397   1_545  A
N2493      N3434   1.451   1_545  S
C2494      N3457   1.398       .  A
C2494      H2500   1.084       .  S
C2495      N2496   1.333       .  A
C2495      H2497   1.080       .  S
N2496      C2498   1.348       .  A
N2496      C2714   1.409       .  S
C2498      H2499   1.082       .  S
C2503      C3469   1.525       .  S
C2503      C2507   1.525   1_655  S
C2503      C2506   1.645       .  S
C2503      C2673   1.621       .  S
C2504      C3474   1.518       .  S
C2504      C2509   1.539       .  S
C2504      C2695   1.554       .  S
C2505      C3467   1.525   1_545  S
C2505      C2513   1.366       .  A
C2505      C2508   1.408   1_655  A
C2506      C2517   1.433       .  A
C2508      C2511   1.366   1_455  A
C2509      C2515   1.390       .  A
C2510      C3468   1.521       .  S
C2510      C2518   1.368       .  A
C2511      N2512   1.337       .  A
C2511      H2524   1.081       .  S
N2512      C2513   1.339       .  A
N2512      C2720   1.399       .  S
C2513      H2514   1.080       .  S
C2515      H2525   1.078       .  S
N2516      C3481   1.397   1_545  A
N2516      N3503   1.453   1_545  S
C2517      N3480   1.397       .  A
C2517      H2523   1.087       .  S
C2518      N2519   1.345       .  A
C2518      H2520   1.081       .  S
N2519      C2521   1.344       .  A
N2519      C2648   1.406       .  S
C2521      H2522   1.082       .  S
C2526      C3494   1.529   1_545  S
C2526      C2529   1.645       .  S
C2526      C2604   1.620       .  S
C2527      C3495   1.532       .  S
C2527      C2532   1.540       .  S
C2527      C2563   1.550       .  S
C2528      C2536   1.378       .  A
C2528      C2531   1.402   1_545  A
C2529      C2540   1.434       .  A
C2530      C3490   1.527       .  S
C2530      C2544   1.363       .  A
C2530      C2533   1.412       .  A
C2531      C3491   1.533       .  S
C2531      C2534   1.373   1_565  A
C2532      C2538   1.390       .  A
C2533      C2541   1.377       .  A
C2534      N2535   1.340       .  A
C2534      H2547   1.080       .  S
N2535      C2536   1.346       .  A
N2535      C2588   1.411       .  S
C2536      H2537   1.081       .  S
C2538      N2539   1.359       .  A
C2538      H2548   1.074       .  S
N2539      N3480   1.454       .  S
C2540      H2546   1.087       .  S
C2541      N2542   1.347       .  A
C2541      H2543   1.082       .  S
N2542      C2544   1.338       .  A
N2542      C2626   1.410       .  S
C2544      H2545   1.080       .  S
O2549     Cr2567   1.975       .  S
O2549      C2557   1.258       .  A
O2550     Cr2567   1.951       .  S
O2550      C2551   1.261       .  A
C2551      O2552   1.277       .  A
C2551      C2883   1.487       .  S
O2552     Cr2568   2.042       .  S
O2553     Cr2568   1.959       .  S
O2553      C2554   1.257       .  A
C2554      O2555   1.259       .  A
C2554      C2852   1.456       .  S
O2555     Cr2569   1.979       .  S
O2556     Cr2569   2.010       .  S
O2556      C2557   1.261       .  A
C2557      C2866   1.481       .  S
O2558     Cr2567   1.941       .  S
O2558      C2566   1.255       .  A
O2559     Cr2567   1.975       .  S
O2559      C2560   1.252       .  A
C2560      O2561   1.251       .  A
O2561     Cr2568   1.950       .  S
O2562     Cr2568   2.053       .  S
O2562      C2563   1.275       .  A
C2563      O2564   1.260       .  A
O2564     Cr2569   1.967       .  S
O2565     Cr2569   2.008       .  S
O2565      C2566   1.269       .  A
Cr2567     O2570   1.760       .  S
Cr2568     O2570   1.763       .  S
Cr2569     O2570   1.766       .  S
O2571     Cr2589   1.960       .  S
O2571      C2579   1.255       .  A
O2572     Cr2589   1.974       .  S
O2572      C2573   1.259       .  A
C2573      O2574   1.265       .  A
C2573      C2880   1.484       .  S
O2574     Cr2590   2.018       .  S
O2575     Cr2590   1.971       .  S
O2575      C2576   1.258       .  A
C2576      O2577   1.257       .  A
C2576      C2841   1.452       .  S
O2577     Cr2591   1.956       .  S
O2578     Cr2591   2.035       .  S
O2578      C2579   1.279       .  A
C2579      C2824   1.474       .  S
O2580     Cr2589   1.990       .  S
O2580      C2588   1.257       .  A
O2581     Cr2589   1.929       .  S
O2581      C2582   1.254       .  A
C2582      O2583   1.264       .  A
O2583     Cr2590   1.998       .  S
O2584     Cr2590   1.978       .  S
O2584      C2585   1.262       .  A
C2585      O2586   1.273       .  A
O2586     Cr2591   2.051       .  S
O2587     Cr2591   1.948       .  S
O2587      C2588   1.250       .  A
Cr2589     O2592   1.757       .  S
Cr2590     O2592   1.763       .  S
Cr2591     O2592   1.761       .  S
O2593     Cr2611   1.955       .  S
O2593      C2601   1.244       .  A
O2594     Cr2611   1.976       .  S
O2594      C2595   1.251       .  A
C2595      O2596   1.259       .  A
C2595      C2799   1.467       .  S
O2596     Cr2612   1.980       .  S
O2597     Cr2612   1.953       .  S
O2597      C2598   1.246       .  A
C2598      O2599   1.256       .  A
C2598      C2838   1.449       .  S
O2599     Cr2613   1.975       .  S
O2600     Cr2613   1.981       .  S
O2600      C2601   1.256       .  A
C2601      C2813   1.462       .  S
O2602     Cr2611   2.045       .  S
O2602      C2610   1.298       .  A
O2603     Cr2611   2.082       .  S
O2603      C2604   1.282       .  A
C2604      O2605   1.293       .  A
O2605     Cr2612   2.036       .  S
O2606     Cr2612   2.091       .  S
O2606      C2607   1.289       .  A
C2607      O2608   1.298       .  A
O2608     Cr2613   2.060       .  S
O2609     Cr2613   2.093       .  S
O2609      C2610   1.290       .  A
Cr2611     O2614   1.809       .  S
Cr2612     O2614   1.801       .  S
Cr2613     O2614   1.798       .  S
O2615     Cr2633   1.951       .  S
O2615      C2623   1.262       .  A
O2616     Cr2633   1.966       .  S
O2616      C2617   1.250       .  A
C2617      O2618   1.270       .  A
C2617      C2782   1.478       .  S
O2618     Cr2634   2.010       .  S
O2619     Cr2634   1.964       .  S
O2619      C2620   1.262       .  A
C2620      O2621   1.252       .  A
C2620      C2810   1.469       .  S
O2621     Cr2635   1.966       .  S
O2622     Cr2635   2.033       .  S
O2622      C2623   1.276       .  A
C2623      C2869   1.483       .  S
O2624     Cr2633   1.962       .  S
O2624      C2632   1.249       .  A
O2625     Cr2633   1.945       .  S
O2625      C2626   1.258       .  A
C2626      O2627   1.262       .  A
O2627     Cr2634   1.987       .  S
O2628     Cr2634   1.974       .  S
O2628      C2629   1.262       .  A
C2629      O2630   1.274       .  A
O2630     Cr2635   2.050       .  S
O2631     Cr2635   1.945       .  S
O2631      C2632   1.249       .  A
Cr2633     O2636   1.760       .  S
Cr2634     O2636   1.754       .  S
Cr2635     O2636   1.771       .  S
O2637     Cr2655   1.972       .  S
O2637      C2645   1.256       .  A
O2638     Cr2655   1.954       .  S
O2638      C2639   1.257       .  A
C2639      O2640   1.284       .  A
C2639      C2785   1.483       .  S
O2640     Cr2656   2.036       .  S
O2641     Cr2656   1.947       .  S
O2641      C2642   1.249       .  A
C2642      O2643   1.262       .  A
C2642      C2768   1.452       .  S
O2643     Cr2657   1.978       .  S
O2644     Cr2657   2.032       .  S
O2644      C2645   1.268       .  A
C2645      C2757   1.492       .  S
O2646     Cr2655   1.949       .  S
O2646      C2654   1.259       .  A
O2647     Cr2655   1.977       .  S
O2647      C2648   1.253       .  A
C2648      O2649   1.245       .  A
O2649     Cr2656   1.943       .  S
O2650     Cr2656   2.055       .  S
O2650      C2651   1.276       .  A
C2651      O2652   1.262       .  A
O2652     Cr2657   1.975       .  S
O2653     Cr2657   2.004       .  S
O2653      C2654   1.268       .  A
Cr2655     O2658   1.762       .  S
Cr2656     O2658   1.765       .  S
Cr2657     O2658   1.759       .  S
O2659     Cr2677   1.977       .  S
O2659      C2667   1.252       .  A
O2660     Cr2677   1.964       .  S
O2660      C2661   1.247       .  A
C2661      O2662   1.258       .  A
C2661      C2771   1.470       .  S
O2662     Cr2678   1.982       .  S
O2663     Cr2678   1.959       .  S
O2663      C2664   1.254       .  A
C2664      O2665   1.253       .  A
C2664      C2855   1.469       .  S
O2665     Cr2679   1.985       .  S
O2666     Cr2679   1.950       .  S
O2666      C2667   1.252       .  A
C2667      C2743   1.462       .  S
O2668     Cr2677   2.039       .  S
O2668      C2676   1.297       .  A
O2669     Cr2677   2.104       .  S
O2669      C2670   1.290       .  A
C2670      O2671   1.297       .  A
O2671     Cr2678   2.050       .  S
O2672     Cr2678   2.093       .  S
O2672      C2673   1.288       .  A
C2673      O2674   1.294       .  A
O2674     Cr2679   2.042       .  S
O2675     Cr2679   2.085       .  S
O2675      C2676   1.286       .  A
Cr2677     O2680   1.806       .  S
Cr2678     O2680   1.797       .  S
Cr2679     O2680   1.804       .  S
O2681     Cr2699   1.985       .  S
O2681      C2689   1.260       .  A
O2682     Cr2699   1.938       .  S
O2682      C2683   1.259       .  A
C2683      O2684   1.277       .  A
C2683      C2726   1.486       .  S
O2684     Cr2700   2.047       .  S
O2685     Cr2700   1.965       .  S
O2685      C2686   1.254       .  A
C2686      O2687   1.262       .  A
C2686      C2796   1.459       .  S
O2687     Cr2701   1.970       .  S
O2688     Cr2701   2.004       .  S
O2688      C2689   1.267       .  A
C2689      C2754   1.470       .  S
O2690     Cr2699   1.952       .  S
O2690      C2698   1.255       .  A
O2691     Cr2699   1.975       .  S
O2691      C2692   1.254       .  A
C2692      O2693   1.249       .  A
O2693     Cr2700   1.949       .  S
O2694     Cr2700   2.059       .  S
O2694      C2695   1.276       .  A
C2695      O2696   1.259       .  A
O2696     Cr2701   1.969       .  S
O2697     Cr2701   1.974       .  S
O2697      C2698   1.259       .  A
Cr2699     O2702   1.762       .  S
Cr2700     O2702   1.778       .  S
Cr2701     O2702   1.760       .  S
O2703     Cr2721   1.979       .  S
O2703      C2711   1.254       .  A
O2704     Cr2721   1.946       .  S
O2704      C2705   1.259       .  A
C2705      O2706   1.277       .  A
C2705      C2729   1.471       .  S
O2706     Cr2722   2.044       .  S
O2707     Cr2722   1.957       .  S
O2707      C2708   1.257       .  A
C2708      O2709   1.257       .  A
C2708      C2740   1.449       .  S
O2709     Cr2723   1.975       .  S
O2710     Cr2723   2.003       .  S
O2710      C2711   1.268       .  A
C2711      C2827   1.472       .  S
O2712     Cr2721   1.932       .  S
O2712      C2720   1.252       .  A
O2713     Cr2721   1.970       .  S
O2713      C2714   1.251       .  A
C2714      O2715   1.252       .  A
O2715     Cr2722   1.955       .  S
O2716     Cr2722   2.058       .  S
O2716      C2717   1.276       .  A
C2717      O2718   1.261       .  A
O2718     Cr2723   1.979       .  S
O2719     Cr2723   1.969       .  S
O2719      C2720   1.262       .  A
Cr2721     O2724   1.764       .  S
Cr2722     O2724   1.762       .  S
Cr2723     O2724   1.759       .  S
C2725      C2726   1.412       .  A
C2725      C2730   1.396       .  A
C2725      H2732   1.078       .  S
C2726      C2727   1.413       .  A
C2727      C2728   1.395       .  A
C2727      N2734   1.427       .  S
C2728      C2729   1.403       .  A
C2728      H2733   1.081       .  S
C2729      C2730   1.405       .  A
C2730      N2731   1.427       .  S
N2731      O2735   1.262       .  A
N2731      O2736   1.262       .  A
N2734      O2738   1.262       .  A
N2734      O2737   1.262       .  A
C2739      C2740   1.396       .  A
C2739      C2744   1.384       .  A
C2739      H2746   1.082       .  S
C2740      C2741   1.407       .  A
C2741      C2742   1.387       .  A
C2741      N2748   1.428       .  S
C2742      C2743   1.403       .  A
C2742      H2747   1.076       .  S
C2743      C2744   1.413       .  A
C2744      N2745   1.429       .  S
N2745      O2749   1.262       .  A
N2745      O2750   1.260       .  A
N2748      O2752   1.262       .  A
N2748      O2751   1.262       .  A
C2753      C2754   1.404       .  A
C2753      C2758   1.402       .  A
C2753      H2760   1.079       .  S
C2754      C2755   1.405       .  A
C2755      C2756   1.394       .  A
C2755      N2762   1.429       .  S
C2756      C2757   1.413       .  A
C2756      H2761   1.079       .  S
C2757      C2758   1.412       .  A
C2758      N2759   1.426       .  S
N2759      O2763   1.262       .  A
N2759      O2764   1.262       .  A
N2762      O2766   1.262       .  A
N2762      O2765   1.262       .  A
C2767      C2768   1.392       .  A
C2767      C2772   1.389       .  A
C2767      H2774   1.081       .  S
C2768      C2769   1.411       .  A
C2769      C2770   1.388       .  A
C2769      N2776   1.428       .  S
C2770      C2771   1.400       .  A
C2770      H2775   1.080       .  S
C2771      C2772   1.416       .  A
C2772      N2773   1.424       .  S
N2773      O2777   1.262       .  A
N2773      O2778   1.262       .  A
N2776      O2780   1.262       .  A
N2776      O2779   1.262       .  A
C2781      C2782   1.395       .  A
C2781      C2786   1.399       .  A
C2781      H2788   1.080       .  S
C2782      C2783   1.424       .  A
C2783      C2784   1.389       .  A
C2783      N2790   1.430       .  S
C2784      C2785   1.395       .  A
C2784      H2789   1.080       .  S
C2785      C2786   1.423       .  A
C2786      N2787   1.427       .  S
N2787      O2791   1.262       .  A
N2787      O2792   1.262       .  A
N2790      O2794   1.262       .  A
N2790      O2793   1.262       .  A
C2795      C2796   1.397       .  A
C2795      C2800   1.388       .  A
C2795      H2802   1.081       .  S
C2796      C2797   1.409       .  A
C2797      C2798   1.389       .  A
C2797      N2804   1.427       .  S
C2798      C2799   1.402       .  A
C2798      H2803   1.080       .  S
C2799      C2800   1.411       .  A
C2800      N2801   1.424       .  S
N2801      O2805   1.263       .  A
N2801      O2806   1.262       .  A
N2804      O2808   1.262       .  A
N2804      O2807   1.262       .  A
C2809      C2810   1.400       .  A
C2809      C2814   1.380       .  A
C2809      H2816   1.080       .  S
C2810      C2811   1.415       .  A
C2811      C2812   1.393       .  A
C2811      N2818   1.427       .  S
C2812      C2813   1.399       .  A
C2812      H2817   1.080       .  S
C2813      C2814   1.417       .  A
C2814      N2815   1.432       .  S
N2815      O2819   1.260       .  A
N2815      O2820   1.262       .  A
N2818      O2822   1.262       .  A
N2818      O2821   1.262       .  A
C2823      C2824   1.396       .  A
C2823      C2828   1.390       .  A
C2823      H2830   1.081       .  S
C2824      C2825   1.417       .  A
C2825      C2826   1.401       .  A
C2825      N2832   1.426       .  S
C2826      C2827   1.397       .  A
C2826      H2831   1.080       .  S
C2827      C2828   1.418       .  A
C2828      N2829   1.430       .  S
N2829      O2833   1.262       .  A
N2829      O2834   1.262       .  A
N2832      O2836   1.262       .  A
N2832      O2835   1.261       .  A
C2837      C2838   1.396       .  A
C2837      C2842   1.383       .  A
C2837      H2844   1.081       .  S
C2838      C2839   1.409       .  A
C2839      C2840   1.389       .  A
C2839      N2846   1.428       .  S
C2840      C2841   1.400       .  A
C2840      H2845   1.081       .  S
C2841      C2842   1.409       .  A
C2842      N2843   1.428       .  S
N2843      O2847   1.261       .  A
N2843      O2848   1.262       .  A
N2846      O2850   1.262       .  A
N2846      O2849   1.261       .  A
C2851      C2852   1.398       .  A
C2851      C2856   1.390       .  A
C2851      H2858   1.081       .  S
C2852      C2853   1.407       .  A
C2853      C2854   1.388       .  A
C2853      N2860   1.427       .  S
C2854      C2855   1.403       .  A
C2854      H2859   1.080       .  S
C2855      C2856   1.416       .  A
C2856      N2857   1.428       .  S
N2857      O2861   1.262       .  A
N2857      O2862   1.262       .  A
N2860      O2864   1.262       .  A
N2860      O2863   1.262       .  A
C2865      C2866   1.406       .  A
C2865      C2870   1.391       .  A
C2865      H2872   1.080       .  S
C2866      C2867   1.410       .  A
C2867      C2868   1.399       .  A
C2867      N2874   1.427       .  S
C2868      C2869   1.409       .  A
C2868      H2873   1.077       .  S
C2869      C2870   1.410       .  A
C2870      N2871   1.428       .  S
N2871      O2875   1.262       .  A
N2871      O2876   1.262       .  A
N2874      O2878   1.262       .  A
N2874      O2877   1.262       .  A
C2879      C2880   1.407       .  A
C2879      C2884   1.393       .  A
C2879      H2886   1.080       .  S
C2880      C2881   1.410       .  A
C2881      C2882   1.401       .  A
C2881      N2888   1.427       .  S
C2882      C2883   1.411       .  A
C2882      H2887   1.080       .  S
C2883      C2884   1.411       .  A
C2884      N2885   1.428       .  S
N2885      O2889   1.262       .  A
N2885      O2890   1.262       .  A
N2888      O2892   1.262       .  A
N2888      O2891   1.262       .  A
C2893      C3377   1.532       .  S
C2893      C2896   1.535       .  S
C2893      C3199   1.554       .  S
C2894      C3382   1.522       .  S
C2894      C2899   1.648       .  S
C2894      C3092   1.622       .  S
C2895      C3375   1.525       .  S
C2895      C2903   1.375       .  A
C2895      C2898   1.417       .  A
C2896      C2907   1.392       .  A
C2897      C2911   1.373       .  A
C2897      C2900   1.401       .  A
C2898      C2901   1.359       .  A
C2899      C2905   1.433       .  A
C2900      C3376   1.522   1_554  S
C2900      C2908   1.371       .  A
C2901      N2902   1.343       .  A
C2901      H2914   1.082       .  S
N2902      C2903   1.344       .  A
N2902      C3064   1.408       .  S
C2903      H2904   1.080       .  S
C2905      H2915   1.104       .  S
N2906      C2907   1.361       .  A
N2906      N2929   1.455       .  S
C2907      H2913   1.057       .  S
C2908      N2909   1.340       .  A
C2908      H2910   1.079       .  S
N2909      C2911   1.343       .  A
N2909      C3180   1.409       .  S
C2911      H2912   1.080       .  S
C2916      C3402   1.526       .  S
C2916      C2919   1.542       .  S
C2916      C3111   1.557       .  S
C2917      C2921   1.521   1_554  S
C2917      C2923   1.535   1_655  S
C2917      C2922   1.654       .  S
C2917      C3158   1.621       .  S
C2918      C2926   1.372       .  A
C2918      C3403   1.402       .  A
C2919      C2930   1.393       .  A
C2920      C3398   1.529       .  S
C2920      C2934   1.383   1_556  A
C2921      C3400   1.399       .  A
C2921      C3406   1.377       .  A
C2922      C2928   1.436       .  A
C2924      C3403   1.375       .  A
C2924      N2925   1.344       .  A
C2924      H2937   1.082       .  S
N2925      C2926   1.339       .  A
N2925      C3042   1.406       .  S
C2926      H2927   1.080       .  S
C2928      N2929   1.396       .  A
C2928      H2938   1.100       .  S
C2930      H2936   1.060       .  S
C2931      N2932   1.341       .  A
C2931      H2933   1.080       .  S
N2932      C2934   1.349       .  A
N2932      C3136   1.421       .  S
C2934      H2935   1.081   1_554  S
C2939      C3425   1.538       .  S
C2939      C2942   1.643       .  S
C2939      C3089   1.638       .  S
C2940      C3426   1.525       .  S
C2940      C2945   1.539       .  S
C2940      C3133   1.553       .  S
C2941      C2949   1.382       .  A
C2941      C2944   1.408       .  A
C2942      C2953   1.431       .  A
C2943      C3421   1.536   1_554  S
C2943      C2957   1.376       .  A
C2943      C2946   1.417       .  A
C2944      C3422   1.526       .  S
C2944      C2947   1.373       .  A
C2945      C2951   1.389       .  A
C2946      C2954   1.372       .  A
C2947      N2948   1.333       .  A
C2947      H2960   1.079       .  S
N2948      C2949   1.342       .  A
N2948      C3114   1.406       .  S
C2949      H2950   1.081       .  S
C2951      N2952   1.357       .  A
C2951      H2961   1.077       .  S
C2953      H2959   1.084       .  S
C2954      N2955   1.340       .  A
C2954      H2956   1.080       .  S
N2955      C2957   1.345       .  A
N2955      C3174   1.411       .  S
C2957      H2958   1.082       .  S
C2962      C2964   1.540   1_554  S
C2962      C2965   1.645       .  S
C2962      C3152   1.626       .  S
C2963      C3451   1.529       .  S
C2963      C2968   1.536       .  S
C2963      C3067   1.557       .  S
C2964      C3454   1.371       .  A
C2964      C3449   1.414   1_565  A
C2965      C2976   1.434       .  A
C2966      C2980   1.374       .  A
C2966      C2969   1.405       .  A
C2967      C3446   1.414   1_545  A
C2967      C2970   1.380   1_545  A
C2968      C2974   1.386       .  A
C2969      C3445   1.527   1_554  S
C2969      C2977   1.367       .  A
C2970      N2971   1.347       .  A
C2970      H2983   1.081   1_565  S
N2971      C2972   1.345       .  A
N2971      C3048   1.421       .  S
C2972      C3446   1.372       .  A
C2972      H2973   1.081       .  S
C2974      N3457   1.355       .  A
C2974      H2984   1.079       .  S
N2975      C3456   1.355   1_554  A
C2976      H2982   1.083       .  S
C2977      N2978   1.333       .  A
C2977      H2979   1.081       .  S
N2978      C2980   1.345       .  A
N2978      C3196   1.399       .  S
C2980      H2981   1.081       .  S
C2985      C2989   1.527   1_655  S
C2985      C2988   1.655       .  S
C2985      C3155   1.631       .  S
C2986      C2991   1.534       .  S
C2986      C3177   1.547       .  S
C2987      C2995   1.368       .  A
C2987      C2990   1.411   1_655  A
C2988      C2999   1.439       .  A
C2990      C2993   1.372   1_455  A
C2991      C2997   1.388       .  A
C2992      C3000   1.369   1_545  A
C2993      N2994   1.339       .  A
C2993      H3006   1.080       .  S
N2994      C2995   1.339       .  A
N2994      C3202   1.404       .  S
C2995      H2996   1.080       .  S
C2997      H3007   1.078       .  S
C2999      H3005   1.086       .  S
C3000      N3001   1.343       .  A
C3000      H3002   1.080       .  S
N3001      C3003   1.344       .  A
N3001      C3130   1.406       .  S
C3003      H3004   1.082       .  S
C3008      C3011   1.650       .  S
C3008      C3086   1.623       .  S
C3009      C3014   1.535       .  S
C3009      C3045   1.546       .  S
C3010      C3018   1.377       .  A
C3010      C3013   1.401       .  A
C3011      C3022   1.436       .  A
C3012      C3026   1.361       .  A
C3012      C3015   1.412       .  A
C3013      C3016   1.373       .  A
C3014      C3020   1.389       .  A
C3015      C3023   1.375       .  A
C3016      N3017   1.339       .  A
C3016      H3029   1.080       .  S
N3017      C3018   1.344       .  A
N3017      C3070   1.409       .  S
C3018      H3019   1.081       .  S
C3020      N3021   1.355       .  A
C3020      H3030   1.075       .  S
C3022      H3028   1.087       .  S
C3023      N3024   1.345       .  A
C3023      H3025   1.081       .  S
N3024      C3026   1.337       .  A
N3024      C3108   1.406       .  S
C3026      H3027   1.080       .  S
O3031     Cr3049   1.974       .  S
O3031      C3039   1.257       .  A
O3032     Cr3049   1.954       .  S
O3032      C3033   1.261       .  A
C3033      O3034   1.276       .  A
C3033      C3365   1.487       .  S
O3034     Cr3050   2.038       .  S
O3035     Cr3050   1.951       .  S
O3035      C3036   1.254       .  A
C3036      O3037   1.260       .  A
C3036      C3334   1.453       .  S
O3037     Cr3051   1.981       .  S
O3038     Cr3051   2.004       .  S
O3038      C3039   1.260       .  A
C3039      C3348   1.473       .  S
O3040     Cr3049   1.947       .  S
O3040      C3048   1.257       .  A
O3041     Cr3049   1.979       .  S
O3041      C3042   1.254       .  A
C3042      O3043   1.250       .  A
O3043     Cr3050   1.943       .  S
O3044     Cr3050   2.052       .  S
O3044      C3045   1.275       .  A
C3045      O3046   1.258       .  A
O3046     Cr3051   1.962       .  S
O3047     Cr3051   2.009       .  S
O3047      C3048   1.268       .  A
Cr3049     O3052   1.758       .  S
Cr3050     O3052   1.764       .  S
Cr3051     O3052   1.767       .  S
O3053     Cr3071   1.942       .  S
O3053      C3061   1.252       .  A
O3054     Cr3071   1.973       .  S
O3054      C3055   1.258       .  A
C3055      O3056   1.264       .  A
C3055      C3362   1.487       .  S
O3056     Cr3072   2.023       .  S
O3057     Cr3072   1.970       .  S
O3057      C3058   1.257       .  A
C3058      O3059   1.255       .  A
C3058      C3323   1.452       .  S
O3059     Cr3073   1.954       .  S
O3060     Cr3073   2.035       .  S
O3060      C3061   1.282       .  A
C3061      C3306   1.478       .  S
O3062     Cr3071   1.986       .  S
O3062      C3070   1.256       .  A
O3063     Cr3071   1.920       .  S
O3063      C3064   1.252       .  A
C3064      O3065   1.267       .  A
O3065     Cr3072   2.005       .  S
O3066     Cr3072   1.977       .  S
O3066      C3067   1.262       .  A
C3067      O3068   1.275       .  A
O3068     Cr3073   2.055       .  S
O3069     Cr3073   1.945       .  S
O3069      C3070   1.249       .  A
Cr3071     O3074   1.757       .  S
Cr3072     O3074   1.761       .  S
Cr3073     O3074   1.755       .  S
O3075     Cr3093   1.959       .  S
O3075      C3083   1.245       .  A
O3076     Cr3093   1.987       .  S
O3076      C3077   1.253       .  A
C3077      O3078   1.259       .  A
C3077      C3281   1.473       .  S
O3078     Cr3094   1.976       .  S
O3079     Cr3094   1.952       .  S
O3079      C3080   1.246       .  A
C3080      O3081   1.256       .  A
C3080      C3320   1.449       .  S
O3081     Cr3095   1.974       .  S
O3082     Cr3095   1.982       .  S
O3082      C3083   1.256       .  A
C3083      C3295   1.465       .  S
O3084     Cr3093   2.046       .  S
O3084      C3092   1.298       .  A
O3085     Cr3093   2.087       .  S
O3085      C3086   1.283       .  A
C3086      O3087   1.296       .  A
O3087     Cr3094   2.039       .  S
O3088     Cr3094   2.096       .  S
O3088      C3089   1.290       .  A
C3089      O3090   1.298       .  A
O3090     Cr3095   2.063       .  S
O3091     Cr3095   2.088       .  S
O3091      C3092   1.289       .  A
Cr3093     O3096   1.809       .  S
Cr3094     O3096   1.798       .  S
Cr3095     O3096   1.798       .  S
O3097     Cr3115   1.940       .  S
O3097      C3105   1.259       .  A
O3098     Cr3115   1.970       .  S
O3098      C3099   1.251       .  A
C3099      O3100   1.270       .  A
C3099      C3264   1.478       .  S
O3100     Cr3116   2.007       .  S
O3101     Cr3116   1.963       .  S
O3101      C3102   1.261       .  A
C3102      O3103   1.251       .  A
C3102      C3292   1.470       .  S
O3103     Cr3117   1.966       .  S
O3104     Cr3117   2.045       .  S
O3104      C3105   1.279       .  A
C3105      C3351   1.484       .  S
O3106     Cr3115   1.966       .  S
O3106      C3114   1.250       .  A
O3107     Cr3115   1.937       .  S
O3107      C3108   1.256       .  A
C3108      O3109   1.261       .  A
O3109     Cr3116   1.985       .  S
O3110     Cr3116   1.974       .  S
O3110      C3111   1.262       .  A
C3111      O3112   1.277       .  A
O3112     Cr3117   2.061       .  S
O3113     Cr3117   1.942       .  S
O3113      C3114   1.248       .  A
Cr3115     O3118   1.761       .  S
Cr3116     O3118   1.754       .  S
Cr3117     O3118   1.770       .  S
O3119     Cr3137   1.978       .  S
O3119      C3127   1.260       .  A
O3120     Cr3137   1.954       .  S
O3120      C3121   1.256       .  A
C3121      O3122   1.281       .  A
C3121      C3267   1.482       .  S
O3122     Cr3138   2.030       .  S
O3123     Cr3138   1.951       .  S
O3123      C3124   1.250       .  A
C3124      O3125   1.263       .  A
C3124      C3250   1.455       .  S
O3125     Cr3139   1.983       .  S
O3126     Cr3139   2.014       .  S
O3126      C3127   1.266       .  A
C3127      C3239   1.483       .  S
O3128     Cr3137   1.952       .  S
O3128      C3136   1.258       .  A
O3129     Cr3137   1.978       .  S
O3129      C3130   1.254       .  A
C3130      O3131   1.246       .  A
O3131     Cr3138   1.943       .  S
O3132     Cr3138   2.051       .  S
O3132      C3133   1.274       .  A
C3133      O3134   1.261       .  A
O3134     Cr3139   1.971       .  S
O3135     Cr3139   2.004       .  S
O3135      C3136   1.266       .  A
Cr3137     O3140   1.763       .  S
Cr3138     O3140   1.768       .  S
Cr3139     O3140   1.759       .  S
O3141     Cr3159   1.970       .  S
O3141      C3149   1.249       .  A
O3142     Cr3159   1.966       .  S
O3142      C3143   1.246       .  A
C3143      O3144   1.259       .  A
C3143      C3253   1.471       .  S
O3144     Cr3160   1.984       .  S
O3145     Cr3160   1.955       .  S
O3145      C3146   1.252       .  A
C3146      O3147   1.250       .  A
C3146      C3337   1.460       .  S
O3147     Cr3161   1.975       .  S
O3148     Cr3161   1.950       .  S
O3148      C3149   1.253       .  A
C3149      C3225   1.458       .  S
O3150     Cr3159   2.038       .  S
O3150      C3158   1.298       .  A
O3151     Cr3159   2.097       .  S
O3151      C3152   1.289       .  A
C3152      O3153   1.295       .  A
O3153     Cr3160   2.044       .  S
O3154     Cr3160   2.100       .  S
O3154      C3155   1.289       .  A
C3155      O3156   1.297       .  A
O3156     Cr3161   2.047       .  S
O3157     Cr3161   2.080       .  S
O3157      C3158   1.285       .  A
Cr3159     O3162   1.807       .  S
Cr3160     O3162   1.795       .  S
Cr3161     O3162   1.801       .  S
O3163     Cr3181   1.981       .  S
O3163      C3171   1.261       .  A
O3164     Cr3181   1.932       .  S
O3164      C3165   1.256       .  A
C3165      O3166   1.278       .  A
C3165      C3208   1.471       .  S
O3166     Cr3182   2.048       .  S
O3167     Cr3182   1.954       .  S
O3167      C3168   1.251       .  A
C3168      O3169   1.261       .  A
C3168      C3278   1.451       .  S
O3169     Cr3183   1.974       .  S
O3170     Cr3183   2.003       .  S
O3170      C3171   1.266       .  A
C3171      C3236   1.472       .  S
O3172     Cr3181   1.948       .  S
O3172      C3180   1.255       .  A
O3173     Cr3181   1.978       .  S
O3173      C3174   1.254       .  A
C3174      O3175   1.247       .  A
O3175     Cr3182   1.949       .  S
O3176     Cr3182   2.054       .  S
O3176      C3177   1.276       .  A
C3177      O3178   1.259       .  A
O3178     Cr3183   1.965       .  S
O3179     Cr3183   1.982       .  S
O3179      C3180   1.261       .  A
Cr3181     O3184   1.759       .  S
Cr3182     O3184   1.775       .  S
Cr3183     O3184   1.759       .  S
O3185     Cr3203   1.959       .  S
O3185      C3193   1.248       .  A
O3186     Cr3203   1.950       .  S
O3186      C3187   1.261       .  A
C3187      O3188   1.273       .  A
C3187      C3211   1.480       .  S
O3188     Cr3204   2.030       .  S
O3189     Cr3204   1.950       .  S
O3189      C3190   1.253       .  A
C3190      O3191   1.258       .  A
C3190      C3222   1.441       .  S
O3191     Cr3205   1.977       .  S
O3192     Cr3205   2.010       .  S
O3192      C3193   1.269       .  A
C3193      C3309   1.474       .  S
O3194     Cr3203   1.936       .  S
O3194      C3202   1.255       .  A
O3195     Cr3203   1.961       .  S
O3195      C3196   1.250       .  A
C3196      O3197   1.251       .  A
O3197     Cr3204   1.943       .  S
O3198     Cr3204   2.048       .  S
O3198      C3199   1.273       .  A
C3199      O3200   1.264       .  A
O3200     Cr3205   1.988       .  S
O3201     Cr3205   1.979       .  S
O3201      C3202   1.264       .  A
Cr3203     O3206   1.760       .  S
Cr3204     O3206   1.757       .  S
Cr3205     O3206   1.759       .  S
C3207      C3208   1.404       .  A
C3207      C3212   1.390       .  A
C3207      H3214   1.081       .  S
C3208      C3209   1.406       .  A
C3209      C3210   1.397       .  A
C3209      N3216   1.427       .  S
C3210      C3211   1.409       .  A
C3210      H3215   1.076       .  S
C3211      C3212   1.412       .  A
C3212      N3213   1.428       .  S
N3213      O3217   1.262       .  A
N3213      O3218   1.262       .  A
N3216      O3220   1.262       .  A
N3216      O3219   1.262       .  A
C3221      C3222   1.396       .  A
C3221      C3226   1.383       .  A
C3221      H3228   1.081       .  S
C3222      C3223   1.402       .  A
C3223      C3224   1.384       .  A
C3223      N3230   1.427       .  S
C3224      C3225   1.402       .  A
C3224      H3229   1.073       .  S
C3225      C3226   1.414       .  A
C3226      N3227   1.429       .  S
N3227      O3231   1.261       .  A
N3227      O3232   1.261       .  A
N3230      O3234   1.262       .  A
N3230      O3233   1.262       .  A
C3235      C3236   1.406       .  A
C3235      C3240   1.398       .  A
C3235      H3242   1.081       .  S
C3236      C3237   1.405       .  A
C3237      C3238   1.397       .  A
C3237      N3244   1.428       .  S
C3238      C3239   1.410       .  A
C3238      H3243   1.078       .  S
C3239      C3240   1.409       .  A
C3240      N3241   1.426       .  S
N3241      O3245   1.262       .  A
N3241      O3246   1.262       .  A
N3244      O3248   1.262       .  A
N3244      O3247   1.262       .  A
C3249      C3250   1.394       .  A
C3249      C3254   1.391       .  A
C3249      H3256   1.081       .  S
C3250      C3251   1.410       .  A
C3251      C3252   1.387       .  A
C3251      N3258   1.427       .  S
C3252      C3253   1.400       .  A
C3252      H3257   1.080       .  S
C3253      C3254   1.417       .  A
C3254      N3255   1.425       .  S
N3255      O3259   1.262       .  A
N3255      O3260   1.262       .  A
N3258      O3262   1.262       .  A
N3258      O3261   1.262       .  A
C3263      C3264   1.394       .  A
C3263      C3268   1.396       .  A
C3263      H3270   1.080       .  S
C3264      C3265   1.424       .  A
C3265      C3266   1.391       .  A
C3265      N3272   1.429       .  S
C3266      C3267   1.396       .  A
C3266      H3271   1.080       .  S
C3267      C3268   1.422       .  A
C3268      N3269   1.425       .  S
N3269      O3273   1.262       .  A
N3269      O3274   1.262       .  A
N3272      O3276   1.262       .  A
N3272      O3275   1.261       .  A
C3277      C3278   1.395       .  A
C3277      C3282   1.391       .  A
C3277      H3284   1.081       .  S
C3278      C3279   1.406       .  A
C3279      C3280   1.385       .  A
C3279      N3286   1.428       .  S
C3280      C3281   1.403       .  A
C3280      H3285   1.080       .  S
C3281      C3282   1.415       .  A
C3282      N3283   1.422       .  S
N3283      O3287   1.262       .  A
N3283      O3288   1.262       .  A
N3286      O3290   1.262       .  A
N3286      O3289   1.262       .  A
C3291      C3292   1.399       .  A
C3291      C3296   1.381       .  A
C3291      H3298   1.081       .  S
C3292      C3293   1.415       .  A
C3293      C3294   1.394       .  A
C3293      N3300   1.427       .  S
C3294      C3295   1.400       .  A
C3294      H3299   1.080       .  S
C3295      C3296   1.416       .  A
C3296      N3297   1.430       .  S
N3297      O3301   1.259       .  A
N3297      O3302   1.262       .  A
N3300      O3304   1.261       .  A
N3300      O3303   1.262       .  A
C3305      C3306   1.392       .  A
C3305      C3310   1.387       .  A
C3305      H3312   1.080       .  S
C3306      C3307   1.424       .  A
C3307      C3308   1.397       .  A
C3307      N3314   1.426       .  S
C3308      C3309   1.393       .  A
C3308      H3313   1.080       .  S
C3309      C3310   1.423       .  A
C3310      N3311   1.429       .  S
N3311      O3315   1.262       .  A
N3311      O3316   1.262       .  A
N3314      O3318   1.262       .  A
N3314      O3317   1.262       .  A
C3319      C3320   1.396       .  A
C3319      C3324   1.383       .  A
C3319      H3326   1.081       .  S
C3320      C3321   1.409       .  A
C3321      C3322   1.389       .  A
C3321      N3328   1.428       .  S
C3322      C3323   1.400       .  A
C3322      H3327   1.080       .  S
C3323      C3324   1.409       .  A
C3324      N3325   1.428       .  S
N3325      O3329   1.261       .  A
N3325      O3330   1.262       .  A
N3328      O3332   1.262       .  A
N3328      O3331   1.262       .  A
C3333      C3334   1.398       .  A
C3333      C3338   1.388       .  A
C3333      H3340   1.081       .  S
C3334      C3335   1.406       .  A
C3335      C3336   1.385       .  A
C3335      N3342   1.427       .  S
C3336      C3337   1.400       .  A
C3336      H3341   1.080       .  S
C3337      C3338   1.415       .  A
C3338      N3339   1.429       .  S
N3339      O3343   1.262       .  A
N3339      O3344   1.262       .  A
N3342      O3346   1.262       .  A
N3342      O3345   1.262       .  A
C3347      C3348   1.405       .  A
C3347      C3352   1.392       .  A
C3347      H3354   1.080       .  S
C3348      C3349   1.406       .  A
C3349      C3350   1.396       .  A
C3349      N3356   1.428       .  S
C3350      C3351   1.411       .  A
C3350      H3355   1.071       .  S
C3351      C3352   1.408       .  A
C3352      N3353   1.426       .  S
N3353      O3357   1.262       .  A
N3353      O3358   1.262       .  A
N3356      O3360   1.262       .  A
N3356      O3359   1.262       .  A
C3361      C3362   1.408       .  A
C3361      C3366   1.391       .  A
C3361      H3368   1.080       .  S
C3362      C3363   1.411       .  A
C3363      C3364   1.402       .  A
C3363      N3370   1.427       .  S
C3364      C3365   1.411       .  A
C3364      H3369   1.080       .  S
C3365      C3366   1.410       .  A
C3366      N3367   1.428       .  S
N3367      O3371   1.262       .  A
N3367      O3372   1.262       .  A
N3370      O3374   1.262       .  A
N3370      O3373   1.262       .  A
C3375      C3378   1.536       .  S
C3375      C3681   1.560       .  S
C3376      C3381   1.653   1_556  S
C3376      C3574   1.624       .  S
C3377      C3385   1.382       .  A
C3377      C3380   1.415   1_554  A
C3378      C3389   1.390       .  A
C3379      C3393   1.372       .  A
C3379      C3382   1.403       .  A
C3380      C3383   1.363       .  A
C3381      C3387   1.436   1_554  A
C3382      C3390   1.371       .  A
C3383      N3384   1.343       .  A
C3383      H3396   1.082       .  S
N3384      C3385   1.348   1_556  A
N3384      C3546   1.416       .  S
C3385      H3386   1.081       .  S
C3387      H3397   1.102       .  S
N3388      C3389   1.361       .  A
N3388      N3411   1.453       .  S
C3389      H3395   1.057       .  S
C3390      N3391   1.340       .  A
C3390      H3392   1.079       .  S
N3391      C3393   1.343       .  A
N3391      C3662   1.408       .  S
C3393      H3394   1.081       .  S
C3398      C3401   1.534       .  S
C3398      C3593   1.549       .  S
C3399      C3403   1.518       .  S
C3399      C3405   1.533   1_655  S
C3399      C3404   1.645       .  S
C3399      C3640   1.612       .  S
C3400      C3408   1.373       .  A
C3401      C3412   1.391       .  A
C3402      C3416   1.378       .  A
C3404      C3410   1.431       .  A
C3406      N3407   1.345       .  A
C3406      H3419   1.082       .  S
N3407      C3408   1.339       .  A
N3407      C3524   1.409       .  S
C3408      H3409   1.080       .  S
C3410      N3411   1.394       .  A
C3410      H3420   1.099       .  S
C3412      H3418   1.062       .  S
C3413      N3414   1.342       .  A
C3413      H3415   1.080       .  S
N3414      C3416   1.348       .  A
N3414      C3618   1.418       .  S
C3416      H3417   1.082       .  S
C3421      C3424   1.643       .  S
C3421      C3571   1.637       .  S
C3422      C3427   1.540       .  S
C3422      C3615   1.556       .  S
C3423      C3431   1.382       .  A
C3423      C3426   1.407   1_556  A
C3424      C3435   1.431       .  A
C3425      C3439   1.376       .  A
C3425      C3428   1.418       .  A
C3426      C3429   1.372   1_554  A
C3427      C3433   1.389       .  A
C3428      C3436   1.372       .  A
C3429      N3430   1.333       .  A
C3429      H3442   1.079   1_556  S
N3430      C3431   1.344       .  A
N3430      C3596   1.405       .  S
C3431      H3432   1.081       .  S
C3433      N3434   1.357       .  A
C3433      H3443   1.077       .  S
C3435      H3441   1.085       .  S
C3436      N3437   1.340       .  A
C3436      H3438   1.080       .  S
N3437      C3439   1.346       .  A
N3437      C3656   1.411       .  S
C3439      H3440   1.082       .  S
C3444      C3446   1.540       .  S
C3444      C3447   1.642       .  S
C3444      C3634   1.623       .  S
C3445      C3450   1.536       .  S
C3445      C3549   1.555       .  S
C3447      C3458   1.432       .  A
C3448      C3462   1.376       .  A
C3448      C3451   1.407       .  A
C3449      C3452   1.380   1_545  A
C3450      C3456   1.385       .  A
C3451      C3459   1.369       .  A
C3452      N3453   1.346       .  A
C3452      H3465   1.082   1_565  S
N3453      C3454   1.345       .  A
N3453      C3530   1.420       .  S
C3454      H3455   1.080       .  S
C3456      H3466   1.080       .  S
C3458      H3464   1.084       .  S
C3459      N3460   1.335       .  A
C3459      H3461   1.080       .  S
N3460      C3462   1.346       .  A
N3460      C3678   1.404       .  S
C3462      H3463   1.082       .  S
C3467      C3471   1.525   1_655  S
C3467      C3470   1.642       .  S
C3467      C3637   1.621       .  S
C3468      C3473   1.541       .  S
C3468      C3659   1.552       .  S
C3469      C3477   1.368       .  A
C3469      C3472   1.405   1_655  A
C3470      C3481   1.432       .  A
C3472      C3475   1.371   1_455  A
C3473      C3479   1.392       .  A
C3474      C3482   1.366   1_545  A
C3475      N3476   1.337       .  A
C3475      H3488   1.080       .  S
N3476      C3477   1.340       .  A
N3476      C3684   1.403       .  S
C3477      H3478   1.080       .  S
C3479      H3489   1.076       .  S
C3481      H3487   1.086       .  S
C3482      N3483   1.342       .  A
C3482      H3484   1.080       .  S
N3483      C3485   1.344       .  A
N3483      C3612   1.402       .  S
C3485      H3486   1.082       .  S
C3490      C3493   1.646       .  S
C3490      C3568   1.619       .  S
C3491      C3496   1.540       .  S
C3491      C3527   1.553       .  S
C3492      C3500   1.377       .  A
C3492      C3495   1.401       .  A
C3493      C3504   1.435       .  A
C3494      C3508   1.362       .  A
C3494      C3497   1.415       .  A
C3495      C3498   1.371       .  A
C3496      C3502   1.390       .  A
C3497      C3505   1.376       .  A
C3498      N3499   1.338       .  A
C3498      H3511   1.080       .  S
N3499      C3500   1.343       .  A
N3499      C3552   1.406       .  S
C3500      H3501   1.080       .  S
C3502      N3503   1.358       .  A
C3502      H3512   1.074       .  S
C3504      H3510   1.088       .  S
C3505      N3506   1.346       .  A
C3505      H3507   1.081       .  S
N3506      C3508   1.338       .  A
N3506      C3590   1.409       .  S
C3508      H3509   1.080       .  S
O3513     Cr3531   1.974       .  S
O3513      C3521   1.257       .  A
O3514     Cr3531   1.953       .  S
O3514      C3515   1.262       .  A
C3515      O3516   1.276       .  A
C3515      C3847   1.486       .  S
O3516     Cr3532   2.040       .  S
O3517     Cr3532   1.953       .  S
O3517      C3518   1.255       .  A
C3518      O3519   1.260       .  A
C3518      C3816   1.453       .  S
O3519     Cr3533   1.982       .  S
O3520     Cr3533   2.016       .  S
O3520      C3521   1.261       .  A
C3521      C3830   1.485       .  S
O3522     Cr3531   1.944       .  S
O3522      C3530   1.257       .  A
O3523     Cr3531   1.979       .  S
O3523      C3524   1.253       .  A
C3524      O3525   1.251       .  A
O3525     Cr3532   1.948       .  S
O3526     Cr3532   2.054       .  S
O3526      C3527   1.275       .  A
C3527      O3528   1.260       .  A
O3528     Cr3533   1.971       .  S
O3529     Cr3533   2.013       .  S
O3529      C3530   1.270       .  A
Cr3531     O3534   1.758       .  S
Cr3532     O3534   1.763       .  S
Cr3533     O3534   1.767       .  S
O3535     Cr3553   1.964       .  S
O3535      C3543   1.256       .  A
O3536     Cr3553   1.971       .  S
O3536      C3537   1.258       .  A
C3537      O3538   1.263       .  A
C3537      C3844   1.483       .  S
O3538     Cr3554   2.016       .  S
O3539     Cr3554   1.983       .  S
O3539      C3540   1.261       .  A
C3540      O3541   1.255       .  A
C3540      C3805   1.455       .  S
O3541     Cr3555   1.952       .  S
O3542     Cr3555   2.036       .  S
O3542      C3543   1.278       .  A
C3543      C3788   1.475       .  S
O3544     Cr3553   1.987       .  S
O3544      C3552   1.257       .  A
O3545     Cr3553   1.931       .  S
O3545      C3546   1.254       .  A
C3546      O3547   1.268       .  A
O3547     Cr3554   2.012       .  S
O3548     Cr3554   1.977       .  S
O3548      C3549   1.262       .  A
C3549      O3550   1.274       .  A
O3550     Cr3555   2.051       .  S
O3551     Cr3555   1.941       .  S
O3551      C3552   1.249       .  A
Cr3553     O3556   1.757       .  S
Cr3554     O3556   1.763       .  S
Cr3555     O3556   1.760       .  S
O3557     Cr3575   1.954       .  S
O3557      C3565   1.243       .  A
O3558     Cr3575   1.976       .  S
O3558      C3559   1.251       .  A
C3559      O3560   1.259       .  A
C3559      C3763   1.467       .  S
O3560     Cr3576   1.977       .  S
O3561     Cr3576   1.958       .  S
O3561      C3562   1.247       .  A
C3562      O3563   1.258       .  A
C3562      C3802   1.455       .  S
O3563     Cr3577   1.978       .  S
O3564     Cr3577   1.981       .  S
O3564      C3565   1.256       .  A
C3565      C3777   1.461       .  S
O3566     Cr3575   2.040       .  S
O3566      C3574   1.297       .  A
O3567     Cr3575   2.077       .  S
O3567      C3568   1.280       .  A
C3568      O3569   1.295       .  A
O3569     Cr3576   2.038       .  S
O3570     Cr3576   2.095       .  S
O3570      C3571   1.290       .  A
C3571      O3572   1.298       .  A
O3572     Cr3577   2.063       .  S
O3573     Cr3577   2.097       .  S
O3573      C3574   1.291       .  A
Cr3575     O3578   1.809       .  S
Cr3576     O3578   1.800       .  S
Cr3577     O3578   1.796       .  S
O3579     Cr3597   1.953       .  S
O3579      C3587   1.262       .  A
O3580     Cr3597   1.962       .  S
O3580      C3581   1.249       .  A
C3581      O3582   1.269       .  A
C3581      C3746   1.472       .  S
O3582     Cr3598   2.005       .  S
O3583     Cr3598   1.967       .  S
O3583      C3584   1.262       .  A
C3584      O3585   1.251       .  A
C3584      C3774   1.469       .  S
O3585     Cr3599   1.963       .  S
O3586     Cr3599   2.032       .  S
O3586      C3587   1.276       .  A
C3587      C3833   1.484       .  S
O3588     Cr3597   1.963       .  S
O3588      C3596   1.250       .  A
O3589     Cr3597   1.940       .  S
O3589      C3590   1.257       .  A
C3590      O3591   1.263       .  A
O3591     Cr3598   1.989       .  S
O3592     Cr3598   1.970       .  S
O3592      C3593   1.261       .  A
C3593      O3594   1.274       .  A
O3594     Cr3599   2.049       .  S
O3595     Cr3599   1.945       .  S
O3595      C3596   1.249       .  A
Cr3597     O3600   1.761       .  S
Cr3598     O3600   1.756       .  S
Cr3599     O3600   1.767       .  S
O3601     Cr3619   1.974       .  S
O3601      C3609   1.257       .  A
O3602     Cr3619   1.945       .  S
O3602      C3603   1.254       .  A
C3603      O3604   1.283       .  A
C3603      C3749   1.478       .  S
O3604     Cr3620   2.036       .  S
O3605     Cr3620   1.942       .  S
O3605      C3606   1.248       .  A
C3606      O3607   1.262       .  A
C3606      C3732   1.446       .  S
O3607     Cr3621   1.976       .  S
O3608     Cr3621   2.027       .  S
O3608      C3609   1.267       .  A
C3609      C3721   1.490       .  S
O3610     Cr3619   1.948       .  S
O3610      C3618   1.258       .  A
O3611     Cr3619   1.975       .  S
O3611      C3612   1.252       .  A
C3612      O3613   1.244       .  A
O3613     Cr3620   1.938       .  S
O3614     Cr3620   2.054       .  S
O3614      C3615   1.275       .  A
C3615      O3616   1.262       .  A
O3616     Cr3621   1.972       .  S
O3617     Cr3621   2.004       .  S
O3617      C3618   1.268       .  A
Cr3619     O3622   1.760       .  S
Cr3620     O3622   1.767       .  S
Cr3621     O3622   1.755       .  S
O3623     Cr3641   1.978       .  S
O3623      C3631   1.252       .  A
O3624     Cr3641   1.965       .  S
O3624      C3625   1.246       .  A
C3625      O3626   1.258       .  A
C3625      C3735   1.469       .  S
O3626     Cr3642   1.981       .  S
O3627     Cr3642   1.957       .  S
O3627      C3628   1.253       .  A
C3628      O3629   1.251       .  A
C3628      C3819   1.465       .  S
O3629     Cr3643   1.978       .  S
O3630     Cr3643   1.953       .  S
O3630      C3631   1.254       .  A
C3631      C3707   1.464       .  S
O3632     Cr3641   2.035       .  S
O3632      C3640   1.295       .  A
O3633     Cr3641   2.096       .  S
O3633      C3634   1.289       .  A
C3634      O3635   1.295       .  A
O3635     Cr3642   2.042       .  S
O3636     Cr3642   2.091       .  S
O3636      C3637   1.287       .  A
C3637      O3638   1.295       .  A
O3638     Cr3643   2.046       .  S
O3639     Cr3643   2.074       .  S
O3639      C3640   1.283       .  A
Cr3641     O3644   1.805       .  S
Cr3642     O3644   1.793       .  S
Cr3643     O3644   1.801       .  S
O3645     Cr3663   1.987       .  S
O3645      C3653   1.262       .  A
O3646     Cr3663   1.938       .  S
O3646      C3647   1.259       .  A
C3647      O3648   1.276       .  A
C3647      C3690   1.484       .  S
O3648     Cr3664   2.042       .  S
O3649     Cr3664   1.957       .  S
O3649      C3650   1.253       .  A
C3650      O3651   1.260       .  A
C3650      C3760   1.449       .  S
O3651     Cr3665   1.967       .  S
O3652     Cr3665   2.005       .  S
O3652      C3653   1.267       .  A
C3653      C3718   1.474       .  S
O3654     Cr3663   1.953       .  S
O3654      C3662   1.255       .  A
O3655     Cr3663   1.976       .  S
O3655      C3656   1.255       .  A
C3656      O3657   1.249       .  A
O3657     Cr3664   1.949       .  S
O3658     Cr3664   2.054       .  S
O3658      C3659   1.273       .  A
C3659      O3660   1.261       .  A
O3660     Cr3665   1.971       .  S
O3661     Cr3665   1.973       .  S
O3661      C3662   1.259       .  A
Cr3663     O3666   1.761       .  S
Cr3664     O3666   1.777       .  S
Cr3665     O3666   1.760       .  S
O3667     Cr3685   1.981       .  S
O3667      C3675   1.254       .  A
O3668     Cr3685   1.947       .  S
O3668      C3669   1.260       .  A
C3669      O3670   1.277       .  A
C3669      C3693   1.469       .  S
O3670     Cr3686   2.039       .  S
O3671     Cr3686   1.951       .  S
O3671      C3672   1.254       .  A
C3672      O3673   1.259       .  A
C3672      C3704   1.449       .  S
O3673     Cr3687   1.980       .  S
O3674     Cr3687   2.004       .  S
O3674      C3675   1.268       .  A
C3675      C3791   1.473       .  S
O3676     Cr3685   1.933       .  S
O3676      C3684   1.253       .  A
O3677     Cr3685   1.968       .  S
O3677      C3678   1.250       .  A
C3678      O3679   1.249       .  A
O3679     Cr3686   1.946       .  S
O3680     Cr3686   2.060       .  S
O3680      C3681   1.276       .  A
C3681      O3682   1.260       .  A
O3682     Cr3687   1.977       .  S
O3683     Cr3687   1.977       .  S
O3683      C3684   1.264       .  A
Cr3685     O3688   1.763       .  S
Cr3686     O3688   1.762       .  S
Cr3687     O3688   1.758       .  S
C3689      C3690   1.411       .  A
C3689      C3694   1.394       .  A
C3689      H3696   1.078       .  S
C3690      C3691   1.413       .  A
C3691      C3692   1.395       .  A
C3691      N3698   1.427       .  S
C3692      C3693   1.403       .  A
C3692      H3697   1.081       .  S
C3693      C3694   1.404       .  A
C3694      N3695   1.427       .  S
N3695      O3699   1.262       .  A
N3695      O3700   1.262       .  A
N3698      O3702   1.262       .  A
N3698      O3701   1.262       .  A
C3703      C3704   1.398       .  A
C3703      C3708   1.386       .  A
C3703      H3710   1.081       .  S
C3704      C3705   1.404       .  A
C3705      C3706   1.385       .  A
C3705      N3712   1.428       .  S
C3706      C3707   1.403       .  A
C3706      H3711   1.075       .  S
C3707      C3708   1.415       .  A
C3708      N3709   1.430       .  S
N3709      O3713   1.261       .  A
N3709      O3714   1.260       .  A
N3712      O3716   1.262       .  A
N3712      O3715   1.262       .  A
C3717      C3718   1.405       .  A
C3717      C3722   1.401       .  A
C3717      H3724   1.080       .  S
C3718      C3719   1.406       .  A
C3719      C3720   1.396       .  A
C3719      N3726   1.428       .  S
C3720      C3721   1.412       .  A
C3720      H3725   1.079       .  S
C3721      C3722   1.410       .  A
C3722      N3723   1.426       .  S
N3723      O3727   1.262       .  A
N3723      O3728   1.262       .  A
N3726      O3730   1.262       .  A
N3726      O3729   1.262       .  A
C3731      C3732   1.389       .  A
C3731      C3736   1.387       .  A
C3731      H3738   1.081       .  S
C3732      C3733   1.409       .  A
C3733      C3734   1.386       .  A
C3733      N3740   1.428       .  S
C3734      C3735   1.400       .  A
C3734      H3739   1.080       .  S
C3735      C3736   1.416       .  A
C3736      N3737   1.422       .  S
N3737      O3741   1.262       .  A
N3737      O3742   1.262       .  A
N3740      O3744   1.262       .  A
N3740      O3743   1.262       .  A
C3745      C3746   1.392       .  A
C3745      C3750   1.395       .  A
C3745      H3752   1.080       .  S
C3746      C3747   1.424       .  A
C3747      C3748   1.388       .  A
C3747      N3754   1.430       .  S
C3748      C3749   1.394       .  A
C3748      H3753   1.080       .  S
C3749      C3750   1.423       .  A
C3750      N3751   1.426       .  S
N3751      O3755   1.262       .  A
N3751      O3756   1.262       .  A
N3754      O3758   1.262       .  A
N3754      O3757   1.261       .  A
C3759      C3760   1.395       .  A
C3759      C3764   1.389       .  A
C3759      H3766   1.081       .  S
C3760      C3761   1.406       .  A
C3761      C3762   1.385       .  A
C3761      N3768   1.427       .  S
C3762      C3763   1.402       .  A
C3762      H3767   1.080       .  S
C3763      C3764   1.413       .  A
C3764      N3765   1.423       .  S
N3765      O3769   1.263       .  A
N3765      O3770   1.262       .  A
N3768      O3772   1.262       .  A
N3768      O3771   1.262       .  A
C3773      C3774   1.399       .  A
C3773      C3778   1.381       .  A
C3773      H3780   1.080       .  S
C3774      C3775   1.416       .  A
C3775      C3776   1.392       .  A
C3775      N3782   1.427       .  S
C3776      C3777   1.398       .  A
C3776      H3781   1.080       .  S
C3777      C3778   1.417       .  A
C3778      N3779   1.432       .  S
N3779      O3783   1.260       .  A
N3779      O3784   1.262       .  A
N3782      O3786   1.261       .  A
N3782      O3785   1.262       .  A
C3787      C3788   1.397       .  A
C3787      C3792   1.392       .  A
C3787      H3794   1.081       .  S
C3788      C3789   1.416       .  A
C3789      C3790   1.401       .  A
C3789      N3796   1.426       .  S
C3790      C3791   1.398       .  A
C3790      H3795   1.080       .  S
C3791      C3792   1.418       .  A
C3792      N3793   1.430       .  S
N3793      O3797   1.262       .  A
N3793      O3798   1.262       .  A
N3796      O3800   1.262       .  A
N3796      O3799   1.261       .  A
C3801      C3802   1.398       .  A
C3801      C3806   1.385       .  A
C3801      H3808   1.080       .  S
C3802      C3803   1.410       .  A
C3803      C3804   1.390       .  A
C3803      N3810   1.427       .  S
C3804      C3805   1.400       .  A
C3804      H3809   1.081       .  S
C3805      C3806   1.407       .  A
C3806      N3807   1.427       .  S
N3807      O3811   1.262       .  A
N3807      O3812   1.262       .  A
N3810      O3814   1.262       .  A
N3810      O3813   1.262       .  A
C3815      C3816   1.398       .  A
C3815      C3820   1.388       .  A
C3815      H3822   1.081       .  S
C3816      C3817   1.405       .  A
C3817      C3818   1.386       .  A
C3817      N3824   1.426       .  S
C3818      C3819   1.402       .  A
C3818      H3823   1.080       .  S
C3819      C3820   1.416       .  A
C3820      N3821   1.429       .  S
N3821      O3825   1.262       .  A
N3821      O3826   1.262       .  A
N3824      O3828   1.262       .  A
N3824      O3827   1.262       .  A
C3829      C3830   1.407       .  A
C3829      C3834   1.389       .  A
C3829      H3836   1.080       .  S
C3830      C3831   1.411       .  A
C3831      C3832   1.402       .  A
C3831      N3838   1.427       .  S
C3832      C3833   1.409       .  A
C3832      H3837   1.075       .  S
C3833      C3834   1.409       .  A
C3834      N3835   1.427       .  S
N3835      O3839   1.262       .  A
N3835      O3840   1.262       .  A
N3838      O3842   1.262       .  A
N3838      O3841   1.262       .  A
C3843      C3844   1.407       .  A
C3843      C3848   1.392       .  A
C3843      H3850   1.080       .  S
C3844      C3845   1.410       .  A
C3845      C3846   1.400       .  A
C3845      N3852   1.427       .  S
C3846      C3847   1.411       .  A
C3846      H3851   1.080       .  S
C3847      C3848   1.411       .  A
C3848      N3849   1.428       .  S
N3849      O3853   1.262       .  A
N3849      O3854   1.262       .  A
N3852      O3856   1.262       .  A
N3852      O3855   1.262       .  A
