geometry optimzed in LAMMPS
_audit_creation_date              2020-12-01 
_audit_creation_method            'lammps2cif' 
_symmetry_space_group_name_H-M    'P1' 
_symmetry_Int_Tables_number       1 
_symmetry_cell_setting            triclinic 
loop_ 
_symmetry_equiv_pos_as_xyz 
  x,y,z 
_cell_length_a                    32.77174178 
_cell_length_b                    32.62663178808218 
_cell_length_c                    31.52049850059175 
_cell_angle_alpha                 90.79316485964401 
_cell_angle_beta                  90.76704297824595 
_cell_angle_gamma                 91.70788762090183 
loop_ 
_atom_site_label 
_atom_site_type_symbol 
_atom_site_fract_x 
_atom_site_fract_y 
_atom_site_fract_z 
_atom_site_charge 
O1          O  0.46653744  0.42137237  0.46665555    -0.80700
O2          O  0.05322886  0.08431765  0.47789254    -0.80700
O3          O  0.41679369  0.05214125  0.47007939    -0.80700
O4          O  0.10175409  0.46923321  0.47282552    -0.80600
O5          O  0.47303306  0.08546519  0.45303398    -0.80800
O6          O  0.04265216  0.44445058  0.44952982    -0.80700
O7          O  0.05656293  0.02960301  0.43914045    -0.80700
O8          O  0.43750914  0.47618092  0.44041652    -0.80700
C9          C  0.44330082  0.43806898  0.43923887     1.09000
C10         C  0.06458734  0.06759869  0.44459613     1.08900
C11         C  0.43500206  0.07853593  0.44853905     1.09000
C12         C  0.08194368  0.44546217  0.44700354     1.08900
O13         O  0.03528211  0.40009577  0.02187567    -0.80700
O14         O  0.45422539  0.08359396  0.03955856    -0.80700
O15         O  0.41975962  0.44742546  0.02065668    -0.80700
O16         O  0.08361225  0.03604863  0.02887847    -0.80700
O17         O  0.03101411  0.06303310  0.06053123    -0.80700
O18         O  0.47438490  0.44244507  0.05840237    -0.80700
O19         O  0.05959946  0.45947984  0.04612969    -0.80600
O20         O  0.42159656  0.02590537  0.05381745    -0.80700
Co21       Co  0.00879258  0.44964346  0.00518994     1.51500
Co22       Co  0.50218806  0.07279885  0.50720841     1.51700
Co23       Co  0.43058262  0.50118714  0.49646554     1.51600
Co24       Co  0.05267864  0.99446960  0.99179790     1.51500
O25         O  0.99323711  0.50996333  0.50013810    -1.42600
C26         C  0.05934300  0.41997940  0.04752266     1.08900
C27         C  0.42886444  0.06376083  0.06084343     1.09000
C28         C  0.43649565  0.43431075  0.05301834     1.09000
C29         C  0.06885389  0.05780262  0.05863821     1.09000
C30         C  0.09087606  0.09369804  0.41574592     0.86000
C31         C  0.13657875  0.08720575  0.42289383    -0.57800
C32         C  0.16116797  0.11126061  0.39833447     0.08900
C33         C  0.13751241  0.13939458  0.36845480     0.19800
C34         C  0.08591017  0.14082970  0.42234082    -0.55000
C35         C  0.11014930  0.16532426  0.39728860     0.09000
C36         C  0.08333537  0.08623621  0.36844754    -0.54500
C37         C  0.10794343  0.10995922  0.34344675     0.09600
H38         H  0.14839836  0.06599844  0.44597199     0.14100
H39         H  0.15755303  0.15768017  0.34746808    -0.00200
H40         H  0.06549464  0.15324163  0.44567154     0.14400
H41         H  0.06181286  0.06297830  0.35607049     0.14200
C42         C  0.10357205  0.41849782  0.41462819     0.86000
C43         C  0.09516184  0.37197142  0.42070550    -0.54300
C44         C  0.11587263  0.34686048  0.39350963     0.08900
C45         C  0.14285178  0.37155826  0.36235964     0.19800
C46         C  0.15020975  0.42372971  0.41788146    -0.55000
C47         C  0.17056174  0.39922440  0.39082048     0.09000
C48         C  0.09326821  0.42565230  0.36716471    -0.54500
C49         C  0.11431969  0.40121704  0.33954009     0.09600
H50         H  0.07558609  0.36020388  0.44552320     0.14100
H51         H  0.15972639  0.35242261  0.33975334    -0.00200
H52         H  0.16612916  0.44444979  0.44020407     0.14400
H53         H  0.07221991  0.44856800  0.35653419     0.14200
C54         C  0.08747190  0.39871753  0.07893019     0.86000
C55         C  0.13341223  0.40894160  0.07214681    -0.54300
C56         C  0.15919028  0.38920651  0.09918739     0.08900
C57         C  0.13643003  0.36151668  0.13085979     0.19800
C58         C  0.08398146  0.35180834  0.07598098    -0.55000
C59         C  0.10941940  0.33219967  0.10301763     0.09000
C60         C  0.08056941  0.40905946  0.12631925    -0.54500
C61         C  0.10644892  0.38980374  0.15388326     0.09600
H62         H  0.14448516  0.42879051  0.04715551     0.14100
H63         H  0.15736587  0.34526110  0.15239158    -0.00200
H64         H  0.06311628  0.33531149  0.05430374     0.14400
H65         H  0.05809524  0.43064812  0.13675334     0.14200
C66         C  0.09566369  0.08358379  0.08752450     0.86000
C67         C  0.08956526  0.12958425  0.08007033    -0.54300
C68         C  0.11314713  0.15487868  0.10574196     0.08900
C69         C  0.14063852  0.13173865  0.13630435     0.19800
C70         C  0.14135943  0.07762194  0.08225528    -0.55000
C71         C  0.16450010  0.10303772  0.10784977     0.09000
C72         C  0.08786883  0.07757086  0.13499355    -0.54500
C73         C  0.11185499  0.10275504  0.16068261     0.09600
H74         H  0.06800136  0.14096372  0.05689561     0.14100
H75         H  0.16039342  0.15239748  0.15655560    -0.00200
H76         H  0.15442730  0.05569806  0.06043946     0.14400
H77         H  0.06607377  0.05501445  0.14702862     0.14200
C78         C  0.40865504  0.10182046  0.41883888     0.86000
C79         C  0.41319811  0.14828616  0.42404505    -0.54300
C80         C  0.38863816  0.16896193  0.39694494     0.08900
C81         C  0.36172600  0.14137262  0.36759340     0.19800
C82         C  0.36215633  0.09234120  0.42420312    -0.55000
C83         C  0.33778683  0.11348388  0.39756560     0.09000
C84         C  0.41675710  0.09281932  0.37214242    -0.54500
C85         C  0.39185151  0.11337846  0.34543833     0.09600
H86         H  0.43449830  0.16338673  0.44632585     0.14100
H87         H  0.34196328  0.15830123  0.34537734    -0.00200
H88         H  0.34934983  0.07203764  0.44793122     0.14400
H89         H  0.43933475  0.07152499  0.36117598     0.14200
C90         C  0.40510615  0.08857949  0.09142429     0.86000
C91         C  0.35934728  0.08175406  0.08500182    -0.54300
C92         C  0.33720940  0.10503621  0.11146242     0.08900
C93         C  0.36224275  0.13296305  0.14201269     0.19800
C94         C  0.41227031  0.13573495  0.08674225    -0.55000
C95         C  0.38972688  0.15927204  0.11325173     0.09000
C96         C  0.41380880  0.08052376  0.13831897    -0.54500
C97         C  0.39102234  0.10388969  0.16465410     0.09600
H98         H  0.34555650  0.06090956  0.06133917     0.14100
H99         H  0.34358067  0.15032526  0.16464640    -0.00200
H100        H  0.43226214  0.14932690  0.06329258     0.14400
H101        H  0.43545006  0.05843864  0.14961195     0.14200
C102        C  0.40950846  0.40872346  0.08202140     0.86000
C103        C  0.41623046  0.36229773  0.07912959    -0.54300
C104        C  0.39141208  0.33901933  0.10488221     0.08900
C105        C  0.36157055  0.36544346  0.13050405     0.19800
C106        C  0.36296402  0.41298486  0.07247478    -0.55000
C107        C  0.33776771  0.39016787  0.09767430     0.09000
C108        C  0.41427096  0.41997960  0.12883852    -0.54500
C109        C  0.38918569  0.39743890  0.15439249     0.09600
H110        H  0.43794676  0.34954969  0.05735204     0.14100
H111        H  0.34155512  0.34796629  0.15209917    -0.00200
H112        H  0.35082761  0.43259679  0.04808009     0.14400
H113        H  0.43550510  0.44377864  0.14070225     0.14200
C114        C  0.41656931  0.41259526  0.40989661     0.86000
C115        C  0.37096310  0.41906746  0.41841631    -0.54300
C116        C  0.34545829  0.39644014  0.39226263     0.08900
C117        C  0.36735212  0.36940030  0.36049878     0.19800
C118        C  0.42178016  0.36640436  0.41352176    -0.55000
C119        C  0.39575259  0.34387853  0.38782306     0.09000
C120        C  0.42183563  0.42193243  0.36273758    -0.54500
C121        C  0.39584667  0.39919272  0.33673337     0.09600
H122        H  0.35988551  0.43982166  0.44263524     0.14100
H123        H  0.34608225  0.35058764  0.33995973    -0.00200
H124        H  0.44326011  0.35251623  0.43514613     0.14400
H125        H  0.44323227  0.44516552  0.35132589     0.14200
C126        C  0.35634647  0.39912989  0.26882312    -0.21800
C127        C  0.39419788  0.40287580  0.29013514    -0.09900
C128        C  0.43000887  0.40772848  0.26650624     0.29000
C129        C  0.42790090  0.40731577  0.22233914    -0.21800
C130        C  0.39022618  0.40183454  0.20103147    -0.09900
C131        C  0.35424854  0.39859064  0.22463710     0.29000
F132        F  0.31704793  0.39531969  0.20521098    -0.20400
H133        H  0.32823851  0.39641222  0.28636909     0.17400
H134        H  0.45598255  0.40953274  0.20475293     0.17400
F135        F  0.46721515  0.41038940  0.28584411    -0.20400
C136        C  0.42611612  0.22733686  0.09967901    -0.21800
C137        C  0.39077215  0.20535152  0.11242799    -0.09900
C138        C  0.35660699  0.22798521  0.12381122     0.29000
C139        C  0.35786017  0.27071547  0.12226816    -0.21800
C140        C  0.39236657  0.29290391  0.10792104    -0.09900
C141        C  0.42705646  0.27033097  0.09735220     0.29000
F142        F  0.46264832  0.28938622  0.08645536    -0.20400
H143        H  0.45358876  0.21136275  0.09200589     0.17400
H144        H  0.33081434  0.28581623  0.13208260     0.17400
F145        F  0.32094475  0.20940197  0.13509094    -0.20400
C146        C  0.42898638  0.11220575  0.23300593    -0.21800
C147        C  0.39265074  0.10176488  0.21098412    -0.09900
C148        C  0.35654734  0.09416916  0.23338079     0.29000
C149        C  0.35671318  0.09737762  0.27739195    -0.21800
C150        C  0.39279154  0.10841230  0.29935481    -0.09900
C151        C  0.42896129  0.11597197  0.27715568     0.29000
F152        F  0.46329763  0.12953280  0.29805647    -0.20400
H153        H  0.45670695  0.11935000  0.21590565     0.17400
H154        H  0.32862361  0.09162709  0.29437317     0.17400
F155        F  0.32103891  0.08419710  0.21265537    -0.20400
C156        C  0.38945743  0.23253281  0.35505614    -0.21800
C157        C  0.38892621  0.21374393  0.39479774    -0.09900
C158        C  0.38889186  0.23783464  0.43200280     0.29000
C159        C  0.39100707  0.28029544  0.42933836    -0.21800
C160        C  0.39264248  0.29910835  0.38964789    -0.09900
C161        C  0.39109491  0.27510485  0.35238332     0.29000
F162        F  0.39265503  0.29267232  0.31362011    -0.20400
H163        H  0.38956930  0.21423271  0.32611277     0.17400
H164        H  0.39094521  0.29858534  0.45829850     0.17400
F165        F  0.38584963  0.22040453  0.47074622    -0.20400
C166        C  0.23023591  0.13434253  0.08784363    -0.21800
C167        C  0.20862303  0.10291817  0.10820193    -0.09900
C168        C  0.22908879  0.07166787  0.12883225     0.29000
C169        C  0.27146595  0.07221815  0.12944669    -0.21800
C170        C  0.29308756  0.10409033  0.10978729    -0.09900
C171        C  0.27261042  0.13469390  0.08816175     0.29000
F172        F  0.29358123  0.16410651  0.06667937    -0.20400
H173        H  0.21422968  0.15816470  0.07144037     0.17400
H174        H  0.28742631  0.04808910  0.14537267     0.17400
F175        F  0.20807496  0.04131952  0.14888987    -0.20400
C176        C  0.11348584  0.22305951  0.14276508    -0.21800
C177        C  0.11240563  0.20030310  0.10458355    -0.09900
C178        C  0.11114635  0.22123554  0.06588085     0.29000
C179        C  0.11062425  0.26406274  0.06567159    -0.21800
C180        C  0.11130137  0.28681821  0.10390283    -0.09900
C181        C  0.11281727  0.26591513  0.14254069     0.29000
F182        F  0.11192660  0.28671567  0.18008674    -0.20400
H183        H  0.11393806  0.20756648  0.17293334     0.17400
H184        H  0.11005390  0.27953478  0.03548702     0.17400
F185        F  0.11153449  0.20047752  0.02826112    -0.20400
C186        C  0.22573255  0.35386062  0.09320442    -0.21800
C187        C  0.20484179  0.39070257  0.09620744    -0.09900
C188        C  0.22792140  0.42786668  0.09724400     0.29000
C189        C  0.27100169  0.42773933  0.09686052    -0.21800
C190        C  0.29189575  0.39061297  0.09499322    -0.09900
C191        C  0.26850970  0.35379565  0.09176136     0.29000
F192        F  0.28680301  0.31771917  0.08509749    -0.20400
H193        H  0.20872806  0.32488626  0.09120124     0.17400
H194        H  0.28808970  0.45664319  0.09905557     0.17400
F195        F  0.20893071  0.46414329  0.10037089    -0.20400
C196        C  0.07413651  0.40412838  0.27015490    -0.21800
C197        C  0.11189457  0.40310685  0.29185037    -0.09900
C198        C  0.14754198  0.40061935  0.26746184     0.29000
C199        C  0.14524490  0.39719192  0.22308081    -0.21800
C200        C  0.10750588  0.39639062  0.20131778    -0.09900
C201        C  0.07182566  0.40067008  0.22546612     0.29000
F202        F  0.03455753  0.39929186  0.20623033    -0.20400
H203        H  0.04624713  0.40582109  0.28797632     0.17400
H204        H  0.17338674  0.39525899  0.20564442     0.17400
F205        F  0.18497907  0.40185510  0.28639817    -0.20400
C206        C  0.23791692  0.42763683  0.36832892    -0.21800
C207        C  0.21533640  0.39835314  0.39102550    -0.09900
C208        C  0.23563059  0.36963637  0.41571197     0.29000
C209        C  0.27826229  0.36937645  0.41645228    -0.21800
C210        C  0.30080897  0.39832461  0.39331813    -0.09900
C211        C  0.28055471  0.42763580  0.36940452     0.29000
F212        F  0.30206888  0.45593982  0.34696731    -0.20400
H213        H  0.22247836  0.45044376  0.34989968     0.17400
H214        H  0.29373265  0.34670015  0.43504128     0.17400
F215        F  0.21418951  0.34242453  0.43956332    -0.20400
C216        C  0.14590641  0.10878353  0.27575473    -0.21800
C217        C  0.10848054  0.10588078  0.29668588    -0.09900
C218        C  0.07232219  0.09938090  0.27267000     0.29000
C219        C  0.07365350  0.09755323  0.22845028    -0.21800
C220        C  0.11100465  0.10191979  0.20752129    -0.09900
C221        C  0.14731430  0.10671075  0.23164743     0.29000
F222        F  0.18434089  0.10840629  0.21289081    -0.20400
H223        H  0.17433595  0.11212581  0.29355494     0.17400
H224        H  0.04530689  0.09390239  0.21053986     0.17400
F225        F  0.03557744  0.09619939  0.29170260    -0.20400
C226        C  0.22880392  0.14793880  0.40277603    -0.21800
C227        C  0.20641986  0.11072930  0.40026320    -0.09900
C228        C  0.22757774  0.07378929  0.39889908     0.29000
C229        C  0.27042053  0.07459722  0.39876162    -0.21800
C230        C  0.29259213  0.11216148  0.39956791    -0.09900
C231        C  0.27136096  0.14883729  0.40216590     0.29000
F232        F  0.29177636  0.18558329  0.40530710    -0.20400
H233        H  0.21333806  0.17651309  0.40608614     0.17400
H234        H  0.28628036  0.04597144  0.39692083     0.17400
F235        F  0.20692045  0.03712967  0.39627422    -0.20400
C236        C  0.14576270  0.23405852  0.38399212    -0.21800
C237        C  0.11083400  0.21206765  0.39769039    -0.09900
C238        C  0.07728041  0.23551093  0.41051902     0.29000
C239        C  0.07912817  0.27880100  0.40921932    -0.21800
C240        C  0.11429473  0.30043050  0.39537647    -0.09900
C241        C  0.14787137  0.27700931  0.38330993     0.29000
F242        F  0.18379399  0.29508359  0.37201376    -0.20400
H243        H  0.17245574  0.21839291  0.37382678     0.17400
H244        H  0.05240791  0.29535911  0.41834000     0.17400
F245        F  0.04183933  0.21705525  0.42275688    -0.20400
O246        O  0.46653356  0.42136833  0.96665870    -0.80700
O247        O  0.05322685  0.08431857  0.97789331    -0.80700
O248        O  0.41678950  0.05214024  0.97008246    -0.80700
O249        O  0.10175266  0.46922719  0.97282302    -0.80600
O250        O  0.47302848  0.08546388  0.95303581    -0.80800
O251        O  0.04264904  0.44444682  0.94952966    -0.80700
O252        O  0.05655880  0.02960350  0.93914202    -0.80700
O253        O  0.43750837  0.47617708  0.94041683    -0.80700
C254        C  0.44329705  0.43806460  0.93924154     1.09000
C255        C  0.06458357  0.06759887  0.94459640     1.08900
C256        C  0.43499767  0.07853380  0.94854060     1.09000
C257        C  0.08194044  0.44545639  0.94700209     1.08900
O258        O  0.03528462  0.40009619  0.52187322    -0.80700
O259        O  0.45422922  0.08359710  0.53955542    -0.80700
O260        O  0.41976194  0.44742351  0.52065436    -0.80700
O261        O  0.08361423  0.03604542  0.52887621    -0.80700
O262        O  0.03101674  0.06303233  0.56052858    -0.80700
O263        O  0.47438690  0.44244531  0.55840084    -0.80700
O264        O  0.05960014  0.45947981  0.54613054    -0.80600
O265        O  0.42160113  0.02590880  0.55381619    -0.80700
Co266      Co  0.00879409  0.44964422  0.50518950     1.51500
Co267      Co  0.50218448  0.07279871  0.00720999     1.51700
Co268      Co  0.43058379  0.50118693  0.99646444     1.51600
Co269      Co  0.05267895  0.99446753  0.49179577     1.51500
O270        O  0.99323868  0.50996344  0.00013608    -1.42600
C271        C  0.05934476  0.41997915  0.54752142     1.08900
C272        C  0.42886923  0.06376424  0.56084141     1.09000
C273        C  0.43649784  0.43431034  0.55301677     1.09000
C274        C  0.06885652  0.05780086  0.55863524     1.09000
C275        C  0.09087174  0.09369555  0.91574387     0.86000
C276        C  0.13657430  0.08720072  0.92288979    -0.57800
C277        C  0.16116373  0.11125330  0.89832856     0.08900
C278        C  0.13750827  0.13938783  0.86844912     0.19800
C279        C  0.08590829  0.14082732  0.92233731    -0.55000
C280        C  0.11014687  0.16531960  0.89728258     0.09000
C281        C  0.08332835  0.08623247  0.86844577    -0.54500
C282        C  0.10793704  0.10995309  0.84344329     0.09600
H283        H  0.14839374  0.06599346  0.94596818     0.14100
H284        H  0.15754886  0.15767234  0.84746122    -0.00200
H285        H  0.06549383  0.15324120  0.94566799     0.14400
H286        H  0.06180396  0.06297569  0.85607015     0.14200
C287        C  0.10356676  0.41849184  0.91462490     0.86000
C288        C  0.09515597  0.37196480  0.92069891    -0.54300
C289        C  0.11586611  0.34685538  0.89350049     0.08900
C290        C  0.14284505  0.37155511  0.86235204     0.19800
C291        C  0.15020455  0.42372272  0.91787734    -0.55000
C292        C  0.17055575  0.39921911  0.89081417     0.09000
C293        C  0.09326195  0.42564929  0.86716227    -0.54500
C294        C  0.11431260  0.40121542  0.83953584     0.09600
H295        H  0.07558034  0.36019565  0.94551596     0.14100
H296        H  0.15971927  0.35242133  0.83974336    -0.00200
H297        H  0.16612476  0.44444117  0.94020095     0.14400
H298        H  0.07221358  0.44856577  0.85653352     0.14200
C299        C  0.08747334  0.39871649  0.57892877     0.86000
C300        C  0.13341365  0.40894260  0.57214753    -0.54300
C301        C  0.15919164  0.38920858  0.59918917     0.08900
C302        C  0.13643096  0.36151776  0.63086060     0.19800
C303        C  0.08398531  0.35180676  0.57597920    -0.55000
C304        C  0.10942317  0.33219883  0.60301728     0.09000
C305        C  0.08056805  0.40905770  0.62631712    -0.54500
C306        C  0.10644723  0.38980325  0.65388187     0.09600
H307        H  0.14448662  0.42879148  0.54715627     0.14100
H308        H  0.15736651  0.34526415  0.65239455    -0.00200
H309        H  0.06312195  0.33530924  0.55430053     0.14400
H310        H  0.05809221  0.43064476  0.63675071     0.14200
C311        C  0.09566743  0.08358088  0.58752168     0.86000
C312        C  0.08957399  0.12958221  0.58006650    -0.54300
C313        C  0.11315646  0.15487513  0.60573961     0.08900
C314        C  0.14064334  0.13173204  0.63630433     0.19800
C315        C  0.14136295  0.07761457  0.58225581    -0.55000
C316        C  0.16450437  0.10302841  0.60785175     0.09000
C317        C  0.08786867  0.07756903  0.63498986    -0.54500
C318        C  0.11185511  0.10275103  0.66068039     0.09600
H319        H  0.06801237  0.14096325  0.55689041     0.14100
H320        H  0.16039879  0.15238881  0.65655732    -0.00200
H321        H  0.15443017  0.05569009  0.56044007     0.14400
H322        H  0.06607103  0.05501451  0.64702344     0.14200
C323        C  0.40865095  0.10181679  0.91883877     0.86000
C324        C  0.41318778  0.14828259  0.92404992    -0.54300
C325        C  0.38862845  0.16895783  0.89694881     0.08900
C326        C  0.36172311  0.14136776  0.86759132     0.19800
C327        C  0.36215244  0.09233124  0.92419627    -0.55000
C328        C  0.33778332  0.11347370  0.89755810     0.09000
C329        C  0.41675993  0.09282111  0.87214253    -0.54500
C330        C  0.39185514  0.11337977  0.84543737     0.09600
H331        H  0.43448420  0.16338368  0.94633428     0.14100
H332        H  0.34196088  0.15829564  0.84537417    -0.00200
H333        H  0.34934559  0.07202504  0.94792180     0.14400
H334        H  0.43934154  0.07153056  0.86117684     0.14200
C335        C  0.40511157  0.08858285  0.59142233     0.86000
C336        C  0.35935293  0.08175235  0.58500446    -0.54300
C337        C  0.33721476  0.10503405  0.61146501     0.08900
C338        C  0.36224816  0.13296578  0.64201105     0.19800
C339        C  0.41227078  0.13573826  0.58673554    -0.55000
C340        C  0.38972786  0.15927482  0.61324589     0.09000
C341        C  0.41381944  0.08053180  0.63831710    -0.54500
C342        C  0.39103320  0.10389771  0.66465243     0.09600
H343        H  0.34556234  0.06090549  0.56134391     0.14100
H344        H  0.34358607  0.15032797  0.66464500    -0.00200
H345        H  0.43226011  0.14933041  0.56328385     0.14400
H346        H  0.43546346  0.05844931  0.64961005     0.14200
C347        C  0.40951098  0.40872454  0.58202113     0.86000
C348        C  0.41623360  0.36229906  0.57913146    -0.54300
C349        C  0.39141584  0.33902156  0.60488539     0.08900
C350        C  0.36157390  0.36544643  0.63050610     0.19800
C351        C  0.36296642  0.41298492  0.57247426    -0.55000
C352        C  0.33777026  0.39016893  0.59767503     0.09000
C353        C  0.41427378  0.41998297  0.62883779    -0.54500
C354        C  0.38918876  0.39744344  0.65439296     0.09600
H355        H  0.43794951  0.34955043  0.55735387     0.14100
H356        H  0.34155893  0.34797009  0.65210232    -0.00200
H357        H  0.35082993  0.43259532  0.54807842     0.14400
H358        H  0.43550797  0.44378250  0.64070034     0.14200
C359        C  0.41656435  0.41259114  0.90989944     0.86000
C360        C  0.37095769  0.41906798  0.91841413    -0.54300
C361        C  0.34545318  0.39644114  0.89225917     0.08900
C362        C  0.36734778  0.36939795  0.86049913     0.19800
C363        C  0.42177018  0.36639985  0.91352839    -0.55000
C364        C  0.39574286  0.34387491  0.88782856     0.09000
C365        C  0.42183570  0.42192517  0.86274041    -0.54500
C366        C  0.39584699  0.39918704  0.83673461     0.09600
H367        H  0.35987981  0.43982338  0.94263168     0.14100
H368        H  0.34607811  0.35058609  0.83995895    -0.00200
H369        H  0.44324679  0.35251098  0.93515589     0.14400
H370        H  0.44323438  0.44515699  0.85133002     0.14200
C371        C  0.35634828  0.39913065  0.76882295    -0.21800
C372        C  0.39419938  0.40287328  0.79013610    -0.09900
C373        C  0.43001058  0.40773020  0.76650791     0.29000
C374        C  0.42790331  0.40732132  0.72234059    -0.21800
C375        C  0.39022903  0.40184073  0.70103198    -0.09900
C376        C  0.35425104  0.39859682  0.72463681     0.29000
F377        F  0.31705076  0.39533141  0.70520942    -0.20400
H378        H  0.32823987  0.39641220  0.78636809     0.17400
H379        H  0.45598504  0.40954053  0.70475489     0.17400
F380        F  0.46721648  0.41039244  0.78584638    -0.20400
C381        C  0.42611838  0.22733912  0.59967703    -0.21800
C382        C  0.39077362  0.20535388  0.61242363    -0.09900
C383        C  0.35660917  0.22798722  0.62380917     0.29000
C384        C  0.35786427  0.27071761  0.62227183    -0.21800
C385        C  0.39237036  0.29290626  0.60792440    -0.09900
C386        C  0.42705975  0.27033334  0.59735361     0.29000
F387        F  0.46265225  0.28938861  0.58645884    -0.20400
H388        H  0.45359063  0.21136477  0.59200310     0.17400
H389        H  0.33082026  0.28581828  0.63209169     0.17400
F390        F  0.32094620  0.20940342  0.63508589    -0.20400
C391        C  0.42899456  0.11222909  0.73300554    -0.21800
C392        C  0.39266299  0.10177406  0.71098249    -0.09900
C393        C  0.35656198  0.09416309  0.73337796     0.29000
C394        C  0.35672570  0.09736938  0.77738911    -0.21800
C395        C  0.39279959  0.10841690  0.79935359    -0.09900
C396        C  0.42896744  0.11599251  0.77715582     0.29000
F397        F  0.46329890  0.12956453  0.79805846    -0.20400
H398        H  0.45671298  0.11938505  0.71590595     0.17400
H399        H  0.32863763  0.09160693  0.79436923     0.17400
F400        F  0.32105759  0.08417790  0.71265112    -0.20400
C401        C  0.38944625  0.23252955  0.85506219    -0.21800
C402        C  0.38891351  0.21374003  0.89480335    -0.09900
C403        C  0.38887663  0.23783034  0.93200875     0.29000
C404        C  0.39099162  0.28029148  0.92934481    -0.21800
C405        C  0.39262950  0.29910473  0.88965438    -0.09900
C406        C  0.39108355  0.27510143  0.85238982     0.29000
F407        F  0.39264657  0.29266894  0.81362681    -0.20400
H408        H  0.38956055  0.21423005  0.82611846     0.17400
H409        H  0.39092863  0.29858113  0.95830487     0.17400
F410        F  0.38583317  0.22039962  0.97075183    -0.20400
C411        C  0.23023941  0.13433423  0.58784506    -0.21800
C412        C  0.20862758  0.10290888  0.60820293    -0.09900
C413        C  0.22909479  0.07165898  0.62883246     0.29000
C414        C  0.27147218  0.07221133  0.62944732    -0.21800
C415        C  0.29309261  0.10408572  0.60978999    -0.09900
C416        C  0.27261397  0.13468793  0.58816395     0.29000
F417        F  0.29358339  0.16410155  0.56668164    -0.20400
H418        H  0.21423224  0.15815588  0.57144188     0.17400
H419        H  0.28743350  0.04808249  0.64537239     0.17400
F420        F  0.20808229  0.04130971  0.64888998    -0.20400
C421        C  0.11349885  0.22305697  0.64276359    -0.21800
C422        C  0.11241751  0.20030052  0.60458189    -0.09900
C423        C  0.11115691  0.22123391  0.56587968     0.29000
C424        C  0.11063199  0.26406129  0.56567097    -0.21800
C425        C  0.11130858  0.28681677  0.60390231    -0.09900
C426        C  0.11282828  0.26591287  0.64253978     0.29000
F427        F  0.11193898  0.28671253  0.68008642    -0.20400
H428        H  0.11395269  0.20756383  0.67293162     0.17400
H429        H  0.11005977  0.27953340  0.53548661     0.17400
F430        F  0.11154600  0.20047668  0.52825957    -0.20400
C431        C  0.22573435  0.35386180  0.59322062    -0.21800
C432        C  0.20484347  0.39070453  0.59620982    -0.09900
C433        C  0.22792332  0.42786883  0.59723046     0.29000
C434        C  0.27100376  0.42774085  0.59684709    -0.21800
C435        C  0.29189787  0.39061382  0.59499416    -0.09900
C436        C  0.26851121  0.35379601  0.59177572     0.29000
F437        F  0.28680307  0.31771763  0.58512043    -0.20400
H438        H  0.20872998  0.32488674  0.59122792     0.17400
H439        H  0.28809180  0.45664531  0.59903039     0.17400
F440        F  0.20893301  0.46414691  0.60034110    -0.20400
C441        C  0.07412836  0.40411601  0.77015144    -0.21800
C442        C  0.11188712  0.40310788  0.79184696    -0.09900
C443        C  0.14753601  0.40063251  0.76745939     0.29000
C444        C  0.14524066  0.39720532  0.72307845    -0.21800
C445        C  0.10750161  0.39639103  0.70131547    -0.09900
C446        C  0.07181909  0.40065700  0.72546280     0.29000
F447        F  0.03455138  0.39926333  0.70622599    -0.20400
H448        H  0.04623807  0.40579749  0.78797290     0.17400
H449        H  0.17338319  0.39528116  0.70564211     0.17400
F450        F  0.18497248  0.40187732  0.78639702    -0.20400
C451        C  0.23791042  0.42763480  0.86832460    -0.21800
C452        C  0.21533048  0.39834829  0.89101807    -0.09900
C453        C  0.23562537  0.36963047  0.91570250     0.29000
C454        C  0.27825716  0.36937269  0.91644410    -0.21800
C455        C  0.30080345  0.39832409  0.89331358    -0.09900
C456        C  0.28054834  0.42763567  0.86940123     0.29000
F457        F  0.30206174  0.45594186  0.84696618    -0.20400
H458        H  0.22247133  0.45044284  0.84989732     0.17400
H459        H  0.29372799  0.34669551  0.93503164     0.17400
F460        F  0.21418484  0.34241588  0.93955114    -0.20400
C461        C  0.14590130  0.10877044  0.77575332    -0.21800
C462        C  0.10847435  0.10587245  0.79668283    -0.09900
C463        C  0.07231610  0.09937666  0.77266568     0.29000
C464        C  0.07364912  0.09755088  0.72844583    -0.21800
C465        C  0.11100177  0.10191408  0.70751870    -0.09900
C466        C  0.14731085  0.10669837  0.73164633     0.29000
F467        F  0.18433830  0.10838769  0.71289124    -0.20400
H468        H  0.17433054  0.11210866  0.79355482     0.17400
H469        H  0.04530300  0.09390384  0.71053391     0.17400
F470        F  0.03557031  0.09619728  0.79169699    -0.20400
C471        C  0.22880045  0.14792918  0.90276666    -0.21800
C472        C  0.20641571  0.11072030  0.90025595    -0.09900
C473        C  0.22757320  0.07377967  0.89889379     0.29000
C474        C  0.27041611  0.07458705  0.89875535    -0.21800
C475        C  0.29258829  0.11215105  0.89955952    -0.09900
C476        C  0.27135726  0.14882721  0.90215673     0.29000
F477        F  0.29177269  0.18557308  0.90529822    -0.20400
H478        H  0.21333463  0.17650456  0.90607553     0.17400
H479        H  0.28627559  0.04596080  0.89691609     0.17400
F480        F  0.20691548  0.03712011  0.89627234    -0.20400
C481        C  0.14575829  0.23405381  0.88398174    -0.21800
C482        C  0.11083002  0.21206259  0.89767993    -0.09900
C483        C  0.07727428  0.23550501  0.91050400     0.29000
C484        C  0.07912092  0.27879498  0.90920365    -0.21800
C485        C  0.11428812  0.30042519  0.89536370    -0.09900
C486        C  0.14786558  0.27700459  0.88329764     0.29000
F487        F  0.18378747  0.29507970  0.87200060    -0.20400
H488        H  0.17245268  0.21838785  0.87381818     0.17400
H489        H  0.05239977  0.29535253  0.91832209     0.17400
F490        F  0.04183237  0.21704826  0.92273805    -0.20400
O491        O  0.46653651  0.92136883  0.46665888    -0.80700
O492        O  0.05322633  0.58432121  0.47789135    -0.80700
O493        O  0.41678839  0.55214264  0.47008753    -0.80700
O494        O  0.10175270  0.96922793  0.47282576    -0.80600
O495        O  0.47302809  0.58546388  0.45303872    -0.80800
O496        O  0.04265078  0.94444575  0.44952953    -0.80700
O497        O  0.05656009  0.52960528  0.43914151    -0.80700
O498        O  0.43751076  0.97617664  0.44041578    -0.80700
C499        C  0.44330073  0.93806432  0.43924078     1.09000
C500        C  0.06458414  0.56760109  0.44459525     1.08900
C501        C  0.43499702  0.57853497  0.44854463     1.09000
C502        C  0.08194244  0.94545737  0.44700323     1.08900
O503        O  0.03528613  0.90009664  0.02187283    -0.80700
O504        O  0.45422667  0.58359515  0.03955728    -0.80700
O505        O  0.41976382  0.94742354  0.02065454    -0.80700
O506        O  0.08361728  0.53604711  0.02887549    -0.80700
O507        O  0.03101988  0.56303516  0.06052748    -0.80700
O508        O  0.47438841  0.94244604  0.05840174    -0.80700
O509        O  0.05959851  0.95948071  0.04613151    -0.80600
O510        O  0.42159897  0.52590656  0.05381803    -0.80700
Co511      Co  0.00879430  0.94964385  0.00518790     1.51500
Co512      Co  0.50218334  0.57279855  0.50721290     1.51700
Co513      Co  0.43058615  0.00118791  0.49646288     1.51600
Co514      Co  0.05268072  0.49446897  0.99179526     1.51500
O515        O  0.99323662  0.00996179  0.50013497    -1.42600
C516        C  0.05934512  0.91998032  0.04752176     1.08900
C517        C  0.42886697  0.56376191  0.06084341     1.09000
C518        C  0.43649959  0.93431044  0.05301716     1.09000
C519        C  0.06885972  0.55780361  0.05863401     1.09000
C520        C  0.09087239  0.59369828  0.41574267     0.86000
C521        C  0.13657496  0.58720486  0.42288994    -0.57800
C522        C  0.16116447  0.61125694  0.39832821     0.08900
C523        C  0.13750922  0.63938950  0.36844686     0.19800
C524        C  0.08590824  0.64083046  0.42233406    -0.55000
C525        C  0.11014734  0.66532247  0.39727892     0.09000
C526        C  0.08333015  0.58623333  0.36844490    -0.54500
C527        C  0.10793902  0.60995311  0.34344203     0.09600
H528        H  0.14839439  0.56599869  0.44596956     0.14100
H529        H  0.15755010  0.65767231  0.34745776    -0.00200
H530        H  0.06549371  0.65324435  0.44566451     0.14400
H531        H  0.06180645  0.56297562  0.35606964     0.14200
C532        C  0.10357156  0.91849545  0.41462582     0.86000
C533        C  0.09516231  0.87196815  0.42069816    -0.54300
C534        C  0.11587354  0.84685992  0.39349952     0.08900
C535        C  0.14285279  0.87156160  0.36235274     0.19800
C536        C  0.15020930  0.92372775  0.41787996    -0.55000
C537        C  0.17056205  0.89922541  0.39081667     0.09000
C538        C  0.09326799  0.92565411  0.36716312    -0.54500
C539        C  0.11432025  0.90122190  0.33953646     0.09600
H540        H  0.07558630  0.86019816  0.44551455     0.14100
H541        H  0.15972812  0.85242945  0.33974394    -0.00200
H542        H  0.16612819  0.94444557  0.44020530     0.14400
H543        H  0.07221893  0.94857009  0.35653459     0.14200
C544        C  0.08747507  0.89871911  0.07892873     0.86000
C545        C  0.13341508  0.90894531  0.07214544    -0.54300
C546        C  0.15919404  0.88921194  0.09918665     0.08900
C547        C  0.13643452  0.86152181  0.13085970     0.19800
C548        C  0.08398698  0.85180958  0.07598044    -0.55000
C549        C  0.10942559  0.83220233  0.10301809     0.09000
C550        C  0.08057163  0.90906168  0.12631721    -0.54500
C551        C  0.10645184  0.88980803  0.15388171     0.09600
H552        H  0.14448706  0.92879354  0.04715328     0.14100
H553        H  0.15737075  0.84526835  0.15239301    -0.00200
H554        H  0.06312259  0.83531159  0.05430318     0.14400
H555        H  0.05809641  0.93064930  0.13675074     0.14200
C556        C  0.09567014  0.58358378  0.08752120     0.86000
C557        C  0.08957255  0.62958523  0.08007040    -0.54300
C558        C  0.11315357  0.65487830  0.10574491     0.08900
C559        C  0.14064287  0.63173511  0.13630721     0.19800
C560        C  0.14136632  0.57762220  0.08225378    -0.55000
C561        C  0.16450600  0.60303611  0.10785178     0.09000
C562        C  0.08787302  0.57756724  0.13498885    -0.54500
C563        C  0.11185782  0.60274913  0.16068085     0.09600
H564        H  0.06800994  0.64096616  0.05689521     0.14100
H565        H  0.16039692  0.65239133  0.15656238    -0.00200
H566        H  0.15443504  0.55569976  0.06043690     0.14400
H567        H  0.06607756  0.55500983  0.14702116     0.14200
C568        C  0.40865093  0.60181688  0.41884199     0.86000
C569        C  0.41319012  0.64828285  0.42404819    -0.54300
C570        C  0.38863143  0.66895668  0.39694518     0.08900
C571        C  0.36172459  0.64136505  0.36759054     0.19800
C572        C  0.36215213  0.59233432  0.42420111    -0.55000
C573        C  0.33778381  0.61347524  0.39756078     0.09000
C574        C  0.41675900  0.59281598  0.37214699    -0.54500
C575        C  0.39185513  0.61337292  0.34543995     0.09600
H576        H  0.43448703  0.66338503  0.44633128     0.14100
H577        H  0.34196328  0.65829155  0.34537146    -0.00200
H578        H  0.34934461  0.57203095  0.44792895     0.14400
H579        H  0.43934000  0.57152360  0.36118330     0.14200
C580        C  0.40511124  0.58857960  0.09142659     0.86000
C581        C  0.35935193  0.58175127  0.08501143    -0.54300
C582        C  0.33721647  0.60503273  0.11147514     0.08900
C583        C  0.36225307  0.63296131  0.14202140     0.19800
C584        C  0.41227174  0.63573508  0.08674233    -0.55000
C585        C  0.38973160  0.65927149  0.11325574     0.09000
C586        C  0.41382170  0.58052493  0.13831976    -0.54500
C587        C  0.39103804  0.60388982  0.16465811     0.09600
H588        H  0.34555912  0.56090708  0.06134999     0.14100
H589        H  0.34359318  0.65032188  0.16465864    -0.00200
H590        H  0.43225884  0.64932729  0.06328868     0.14400
H591        H  0.43546488  0.55844023  0.14960955     0.14200
C592        C  0.40951268  0.90872363  0.08202073     0.86000
C593        C  0.41623368  0.86229771  0.07912887    -0.54300
C594        C  0.39141547  0.83901956  0.10488223     0.08900
C595        C  0.36157446  0.86544490  0.13050386     0.19800
C596        C  0.36296858  0.91298589  0.07247425    -0.55000
C597        C  0.33777187  0.89016957  0.09767383     0.09000
C598        C  0.41427592  0.91997982  0.12883786    -0.54500
C599        C  0.38919024  0.89743994  0.15439214     0.09600
H600        H  0.43794924  0.84955001  0.05735071     0.14100
H601        H  0.34155855  0.84796933  0.15209951    -0.00200
H602        H  0.35083265  0.93259761  0.04807918     0.14400
H603        H  0.43551055  0.94377850  0.14070126     0.14200
C604        C  0.41656970  0.91258986  0.40989823     0.86000
C605        C  0.37096329  0.91906177  0.41841705    -0.54300
C606        C  0.34545891  0.89643469  0.39226254     0.08900
C607        C  0.36735349  0.86939582  0.36049835     0.19800
C608        C  0.42178040  0.86639872  0.41352277    -0.55000
C609        C  0.39575316  0.84387340  0.38782290     0.09000
C610        C  0.42183687  0.92192784  0.36273948    -0.54500
C611        C  0.39584851  0.89918885  0.33673398     0.09600
H612        H  0.35988525  0.93981561  0.44263596     0.14100
H613        H  0.34608393  0.85058363  0.33995833    -0.00200
H614        H  0.44325928  0.85251019  0.43514796     0.14400
H615        H  0.44323338  0.94516167  0.35132905     0.14200
C616        C  0.35634929  0.89912832  0.26882258    -0.21800
C617        C  0.39420027  0.90287411  0.29013552    -0.09900
C618        C  0.43001126  0.90773073  0.26650717     0.29000
C619        C  0.42790411  0.90731885  0.22233992    -0.21800
C620        C  0.39023005  0.90183626  0.20103134    -0.09900
C621        C  0.35425207  0.89859189  0.22463640     0.29000
F622        F  0.31705168  0.89532429  0.20520948    -0.20400
H623        H  0.32824112  0.89640948  0.28636793     0.17400
H624        H  0.45598590  0.90953827  0.20475429     0.17400
F625        F  0.46721698  0.91039596  0.28584568    -0.20400
C626        C  0.42611754  0.72733591  0.09967409    -0.21800
C627        C  0.39077664  0.70535106  0.11243227    -0.09900
C628        C  0.35661488  0.72798551  0.12382487     0.29000
C629        C  0.35786812  0.77071571  0.12228060    -0.21800
C630        C  0.39237052  0.79290379  0.10792271    -0.09900
C631        C  0.42705759  0.77032979  0.09734556     0.29000
F632        F  0.46264713  0.78938335  0.08643864    -0.20400
H633        H  0.45358848  0.71136160  0.09199461     0.17400
H634        H  0.33082514  0.78581620  0.13210372     0.17400
F635        F  0.32095575  0.70940335  0.13511598    -0.20400
C636        C  0.42899760  0.61222456  0.23301069    -0.21800
C637        C  0.39266870  0.60176056  0.21098723    -0.09900
C638        C  0.35656923  0.59413844  0.23338165     0.29000
C639        C  0.35673085  0.59734694  0.27739265    -0.21800
C640        C  0.39280146  0.60840597  0.29935723    -0.09900
C641        C  0.42896855  0.61598864  0.27716064     0.29000
F642        F  0.46329662  0.62956870  0.29806414    -0.20400
H643        H  0.45671456  0.61938781  0.21591161     0.17400
H644        H  0.32864374  0.59157795  0.29437253     0.17400
F645        F  0.32106827  0.58414181  0.21265355    -0.20400
C646        C  0.38945253  0.73252762  0.35505627    -0.21800
C647        C  0.38891723  0.71373876  0.39479774    -0.09900
C648        C  0.38887995  0.73782969  0.43200265     0.29000
C649        C  0.39099928  0.78029055  0.42933839    -0.21800
C650        C  0.39264037  0.79910324  0.38964803    -0.09900
C651        C  0.39109328  0.77509964  0.35238350     0.29000
F652        F  0.39265733  0.79266693  0.31362041    -0.20400
H653        H  0.38956603  0.71422746  0.32611291     0.17400
H654        H  0.39093605  0.79858058  0.45829828     0.17400
F655        F  0.38583161  0.72039971  0.47074564    -0.20400
C656        C  0.23024400  0.63434927  0.08786484    -0.21800
C657        C  0.20862927  0.60291649  0.10820775    -0.09900
C658        C  0.22909360  0.57165898  0.12882785     0.29000
C659        C  0.27147092  0.57220911  0.12944557    -0.21800
C660        C  0.29309430  0.60408916  0.10980094    -0.09900
C661        C  0.27261853  0.63470091  0.08818650     0.29000
F662        F  0.29359062  0.66412070  0.06671561    -0.20400
H663        H  0.21423916  0.65817753  0.07146975     0.17400
H664        H  0.28742986  0.54807375  0.14536259     0.17400
F665        F  0.20807817  0.54130424  0.14887373    -0.20400
C666        C  0.11349828  0.72306147  0.14276797    -0.21800
C667        C  0.11241456  0.70030385  0.10458690    -0.09900
C668        C  0.11115308  0.72123632  0.06588413     0.29000
C669        C  0.11063043  0.76406367  0.06567413    -0.21800
C670        C  0.11130961  0.78682031  0.10390467    -0.09900
C671        C  0.11282925  0.76591758  0.14254281     0.29000
F672        F  0.11194105  0.78671875  0.18008866    -0.20400
H673        H  0.11395280  0.70756917  0.17293647     0.17400
H674        H  0.11005779  0.77953486  0.03548917     0.17400
F675        F  0.11153940  0.70047817  0.02826446    -0.20400
C676        C  0.22573614  0.85386417  0.09322073    -0.21800
C677        C  0.20484572  0.89070752  0.09620570    -0.09900
C678        C  0.22792601  0.92787165  0.09722285     0.29000
C679        C  0.27100635  0.92774287  0.09683972    -0.21800
C680        C  0.29189984  0.89061526  0.09499192    -0.09900
C681        C  0.26851296  0.85379746  0.09177782     0.29000
F682        F  0.28680486  0.81771767  0.08513053    -0.20400
H683        H  0.20873155  0.82488925  0.09123125     0.17400
H684        H  0.28809487  0.95664734  0.09902020     0.17400
F685        F  0.20893640  0.96415036  0.10033107    -0.20400
C686        C  0.07413637  0.90412823  0.27015196    -0.21800
C687        C  0.11189489  0.90311472  0.29184734    -0.09900
C688        C  0.14754317  0.90063498  0.26745925     0.29000
C689        C  0.14524693  0.89720651  0.22307832    -0.21800
C690        C  0.10750772  0.89639680  0.20131553    -0.09900
C691        C  0.07182628  0.90066933  0.22546334     0.29000
F692        F  0.03455828  0.89928297  0.20622716    -0.20400
H693        H  0.04624640  0.90581444  0.28797350     0.17400
H694        H  0.17338907  0.89527867  0.20564186     0.17400
F695        F  0.18497999  0.90187800  0.28639625    -0.20400
C696        C  0.23791933  0.92763886  0.36833144    -0.21800
C697        C  0.21533682  0.89835303  0.39102320    -0.09900
C698        C  0.23562905  0.86963119  0.41570496     0.29000
C699        C  0.27826081  0.86936920  0.41644611    -0.21800
C700        C  0.30080945  0.89831978  0.39331684    -0.09900
C701        C  0.28055708  0.92763519  0.36940723     0.29000
F702        F  0.30207320  0.95594048  0.34697360    -0.20400
H703        H  0.22248236  0.95044922  0.34990532     0.17400
H704        H  0.29372964  0.84668940  0.43503183     0.17400
F705        F  0.21418587  0.84241605  0.43955054    -0.20400
C706        C  0.14590496  0.60876334  0.27575311    -0.21800
C707        C  0.10847744  0.60586948  0.29668209    -0.09900
C708        C  0.07231914  0.59937510  0.27266501     0.29000
C709        C  0.07365224  0.59754776  0.22844540    -0.21800
C710        C  0.11100511  0.60190852  0.20751865    -0.09900
C711        C  0.14731452  0.60668986  0.23164607     0.29000
F712        F  0.18434182  0.60837665  0.21289047    -0.20400
H713        H  0.17433393  0.61210046  0.29355491     0.17400
H714        H  0.04530602  0.59390279  0.21053327     0.17400
F715        F  0.03557318  0.59620002  0.29169623    -0.20400
C716        C  0.22880137  0.64793329  0.40276552    -0.21800
C717        C  0.20641634  0.61072434  0.40025619    -0.09900
C718        C  0.22757331  0.57378351  0.39889574     0.29000
C719        C  0.27041616  0.57459021  0.39875879    -0.21800
C720        C  0.29258882  0.61215389  0.39956195    -0.09900
C721        C  0.27135840  0.64883052  0.40215681     0.29000
F722        F  0.29177467  0.68557607  0.40529653    -0.20400
H723        H  0.21333571  0.67650897  0.40607162     0.17400
H724        H  0.28627523  0.54596376  0.39692102     0.17400
F725        F  0.20691507  0.53712425  0.39627392    -0.20400
C726        C  0.14575931  0.73405595  0.38397151    -0.21800
C727        C  0.11083242  0.71206600  0.39767603    -0.09900
C728        C  0.07728046  0.73551041  0.41050716     0.29000
C729        C  0.07912898  0.77880028  0.40920688    -0.21800
C730        C  0.11429442  0.80042928  0.39536053    -0.09900
C731        C  0.14786845  0.77700691  0.38328732     0.29000
F732        F  0.18378939  0.79507996  0.37198399    -0.20400
H733        H  0.17245162  0.71838908  0.37380384     0.17400
H734        H  0.05241010  0.79535869  0.41833108     0.17400
F735        F  0.04184026  0.71705613  0.42274952    -0.20400
O736        O  0.46653951  0.92137037  0.96665675    -0.80700
O737        O  0.05323050  0.58432043  0.97789212    -0.80700
O738        O  0.41679139  0.55214089  0.97008310    -0.80700
O739        O  0.10175481  0.96923469  0.97282817    -0.80600
O740        O  0.47303108  0.58546358  0.95303628    -0.80800
O741        O  0.04265449  0.94445107  0.94952905    -0.80700
O742        O  0.05656427  0.52960574  0.93914012    -0.80700
O743        O  0.43751156  0.97617793  0.94041552    -0.80700
C744        C  0.44330413  0.93806612  0.93923855     1.09000
C745        C  0.06458783  0.56760184  0.94459530     1.08900
C746        C  0.43499983  0.57853512  0.94854251     1.09000
C747        C  0.08194624  0.94546442  0.94700420     1.08900
O748        O  0.03528299  0.90009541  0.52187642    -0.80700
O749        O  0.45422384  0.58359325  0.53956082    -0.80700
O750        O  0.41976297  0.94742663  0.52065652    -0.80700
O751        O  0.08361407  0.53605026  0.52887706    -0.80700
O752        O  0.03101618  0.56303675  0.56052905    -0.80700
O753        O  0.47438808  0.94244655  0.55840245    -0.80700
O754        O  0.05959727  0.95948021  0.54613079    -0.80600
O755        O  0.42159687  0.52590387  0.55382056    -0.80700
Co756      Co  0.00879178  0.94964207  0.50518878     1.51500
Co757      Co  0.50218606  0.57279742  0.00721055     1.51700
Co758      Co  0.43058416  0.00118633  0.99646352     1.51600
Co759      Co  0.05267960  0.49447033  0.49179727     1.51500
O760        O  0.99323628  0.00996263  0.00013731    -1.42600
C761        C  0.05934328  0.91998002  0.54752338     1.08900
C762        C  0.42886435  0.56375928  0.56084673     1.09000
C763        C  0.43649910  0.93431143  0.55301803     1.09000
C764        C  0.06885601  0.55780579  0.55863598     1.09000
C765        C  0.09087526  0.59370196  0.91574451     0.86000
C766        C  0.13657784  0.58721136  0.92289388    -0.57800
C767        C  0.16116692  0.61126549  0.89833388     0.08900
C768        C  0.13751159  0.63939723  0.86845200     0.19800
C769        C  0.08590819  0.64083403  0.92233700    -0.55000
C770        C  0.11014785  0.66532821  0.89728423     0.09000
C771        C  0.08333552  0.58623774  0.86844656    -0.54500
C772        C  0.10794366  0.60995979  0.84344515     0.09600
H773        H  0.14839761  0.56600537  0.94597328     0.14100
H774        H  0.15755248  0.65768117  0.84746411    -0.00200
H775        H  0.06549233  0.65324608  0.94566722     0.14400
H776        H  0.06181381  0.56297880  0.85607013     0.14200
C777        C  0.10357714  0.91850270  0.91462863     0.86000
C778        C  0.09516781  0.87197613  0.92070412    -0.54300
C779        C  0.11587951  0.84686616  0.89350817     0.08900
C780        C  0.14285947  0.87156564  0.86236008     0.19800
C781        C  0.15021478  0.92373559  0.91788385    -0.55000
C782        C  0.17056807  0.89923140  0.89082277     0.09000
C783        C  0.09327487  0.92565868  0.86716506    -0.54500
C784        C  0.11432787  0.90122483  0.83954035     0.09600
H785        H  0.07559126  0.86020782  0.94552096     0.14100
H786        H  0.15973518  0.85243119  0.83975389    -0.00200
H787        H  0.16613299  0.94445487  0.94020827     0.14400
H788        H  0.07222631  0.94857419  0.85653468     0.14200
C789        C  0.08747465  0.89871992  0.57893008     0.86000
C790        C  0.13341451  0.90894467  0.57214395    -0.54300
C791        C  0.15919422  0.88921063  0.59918381     0.08900
C792        C  0.13643599  0.86152141  0.63085834     0.19800
C793        C  0.08398483  0.85181082  0.57598254    -0.55000
C794        C  0.10942427  0.83220317  0.60301842     0.09000
C795        C  0.08057464  0.90906338  0.62631926    -0.54500
C796        C  0.10645579  0.88980894  0.65388284     0.09600
H797        H  0.14448588  0.92879315  0.54715168     0.14100
H798        H  0.15737329  0.84526650  0.65238924    -0.00200
H799        H  0.06311854  0.83531311  0.55430701     0.14400
H800        H  0.05810099  0.93065227  0.63675340     0.14200
C801        C  0.09566598  0.58358641  0.58752326     0.86000
C802        C  0.08956479  0.62958726  0.58007394    -0.54300
C803        C  0.11314628  0.65488107  0.60574691     0.08900
C804        C  0.14063957  0.63173964  0.63630654     0.19800
C805        C  0.14136207  0.57762797  0.58225194    -0.55000
C806        C  0.16450203  0.60304282  0.60784841     0.09000
C807        C  0.08787293  0.57756868  0.63499182    -0.54500
C808        C  0.11185838  0.60275178  0.66068248     0.09600
H809        H  0.06800006  0.64096726  0.55690053     0.14100
H810        H  0.16039398  0.65239706  0.65655999    -0.00200
H811        H  0.15443059  0.55570634  0.56043419     0.14400
H812        H  0.06607922  0.55501025  0.64702551     0.14200
C813        C  0.40865280  0.60181848  0.91884207     0.86000
C814        C  0.41319956  0.64828436  0.92404182    -0.54300
C815        C  0.38863965  0.66895858  0.89694032     0.08900
C816        C  0.36172425  0.64136765  0.86759346     0.19800
C817        C  0.36215384  0.59234341  0.92421015    -0.55000
C818        C  0.33778476  0.61348439  0.89757068     0.09000
C819        C  0.41675173  0.59281058  0.87214675    -0.54500
C820        C  0.39184657  0.61336794  0.84544111     0.09600
H821        H  0.43450134  0.66338613  0.94632012     0.14100
H822        H  0.34196199  0.65829503  0.84537599    -0.00200
H823        H  0.34934712  0.57204344  0.94794136     0.14400
H824        H  0.43932799  0.57151363  0.86118204     0.14200
C825        C  0.40510702  0.58857688  0.59142889     0.86000
C826        C  0.35934802  0.58175341  0.58500589    -0.54300
C827        C  0.33721100  0.60503511  0.61146782     0.08900
C828        C  0.36224524  0.63295908  0.64202000     0.19800
C829        C  0.41227280  0.63573243  0.58674987    -0.55000
C830        C  0.38973004  0.65926922  0.61326040     0.09000
C831        C  0.41380918  0.58051753  0.63832255    -0.54500
C832        C  0.39102338  0.60388234  0.66465909     0.09600
H833        H  0.34555665  0.56091097  0.56134178     0.14100
H834        H  0.34358372  0.65032015  0.66465511    -0.00200
H835        H  0.43226415  0.64932462  0.56329999     0.14400
H836        H  0.43544901  0.55843032  0.64961391     0.14200
C837        C  0.40951192  0.90872282  0.58202021     0.86000
C838        C  0.41623109  0.86229640  0.57912524    -0.54300
C839        C  0.39141172  0.83901761  0.60487702     0.08900
C840        C  0.36157208  0.86544237  0.63050063     0.19800
C841        C  0.36296795  0.91298744  0.57247463    -0.55000
C842        C  0.33777076  0.89017020  0.59767256     0.09000
C843        C  0.41427557  0.91997562  0.62883801    -0.54500
C844        C  0.38918921  0.89743490  0.65439090     0.09600
H845        H  0.43794670  0.84954870  0.55734688     0.14100
H846        H  0.34155554  0.84796537  0.65209463    -0.00200
H847        H  0.35083230  0.93260136  0.54808110     0.14400
H848        H  0.43551088  0.94377322  0.64070290     0.14200
C849        C  0.41657452  0.91259151  0.90989527     0.86000
C850        C  0.37096842  0.91905870  0.91841857    -0.54300
C851        C  0.34546393  0.89643149  0.89226473     0.08900
C852        C  0.36735812  0.86939627  0.86049673     0.19800
C853        C  0.42179001  0.86640076  0.91351561    -0.55000
C854        C  0.39576285  0.84387480  0.88781624     0.09000
C855        C  0.42183717  0.92193305  0.86273664    -0.54500
C856        C  0.39584879  0.89919286  0.83673213     0.09600
H857        H  0.35989051  0.93981103  0.94263900     0.14100
H858        H  0.34608854  0.85058351  0.83995730    -0.00200
H859        H  0.44327188  0.85251275  0.93513804     0.14400
H860        H  0.44323177  0.94516838  0.85132535     0.14200
C861        C  0.35634863  0.89912727  0.76882168    -0.21800
C862        C  0.39419977  0.90287568  0.79013395    -0.09900
C863        C  0.43001079  0.90772813  0.76650532     0.29000
C864        C  0.42790339  0.90731244  0.72233822    -0.21800
C865        C  0.39022904  0.90182958  0.70103014    -0.09900
C866        C  0.35425116  0.89858600  0.72463554     0.29000
F867        F  0.31705065  0.89531432  0.70520926    -0.20400
H868        H  0.32824078  0.89640938  0.78636753     0.17400
H869        H  0.45598518  0.90952950  0.70475241     0.17400
F870        F  0.46721664  0.91039227  0.78584378    -0.20400
C871        C  0.42611570  0.72733431  0.59967877    -0.21800
C872        C  0.39077409  0.70534915  0.61243476    -0.09900
C873        C  0.35660959  0.72798353  0.62381949     0.29000
C874        C  0.35786072  0.77071373  0.62226898    -0.21800
C875        C  0.39236552  0.79290171  0.60791663    -0.09900
C876        C  0.42705459  0.77032806  0.59734646     0.29000
F877        F  0.46264469  0.78938231  0.58644251    -0.20400
H878        H  0.45358812  0.71136047  0.59200419     0.17400
H879        H  0.33081445  0.78581486  0.63208237     0.17400
F880        F  0.32095005  0.70940107  0.63510880    -0.20400
C881        C  0.42898527  0.61219265  0.73301163    -0.21800
C882        C  0.39265053  0.60175213  0.71098840    -0.09900
C883        C  0.35654680  0.59415263  0.73338336     0.29000
C884        C  0.35671074  0.59736114  0.77739455    -0.21800
C885        C  0.39278782  0.60839825  0.79935843    -0.09900
C886        C  0.42895847  0.61595789  0.77716109     0.29000
F887        F  0.46329378  0.62951868  0.79806359    -0.20400
H888        H  0.45670638  0.61933836  0.71591257     0.17400
H889        H  0.32862083  0.59160953  0.79437487     0.17400
F890        F  0.32104000  0.58417761  0.71265611    -0.20400
C891        C  0.38946231  0.73252856  0.85504887    -0.21800
C892        C  0.38892888  0.71374044  0.89479085    -0.09900
C893        C  0.38889510  0.73783182  0.93199538     0.29000
C894        C  0.39101482  0.78029229  0.92933061    -0.21800
C895        C  0.39265308  0.79910460  0.88964016    -0.09900
C896        C  0.39110389  0.77510078  0.85237563     0.29000
F897        F  0.39266550  0.79266794  0.81361231    -0.20400
H898        H  0.38957279  0.71422773  0.82610592     0.17400
H899        H  0.39095311  0.79858245  0.95829048     0.17400
F900        F  0.38584849  0.72040267  0.97073887    -0.20400
C901        C  0.23023978  0.63435255  0.58785509    -0.21800
C902        C  0.20862495  0.60292288  0.60820291    -0.09900
C903        C  0.22908872  0.57166674  0.62882572     0.29000
C904        C  0.27146579  0.57221528  0.62944176    -0.21800
C905        C  0.29308932  0.60409186  0.60979184    -0.09900
C906        C  0.27261428  0.63470236  0.58817485     0.29000
F907        F  0.29358704  0.66411975  0.56670113    -0.20400
H908        H  0.21423512  0.65817970  0.57145806     0.17400
H909        H  0.28742454  0.54808169  0.64536189     0.17400
F910        F  0.20807293  0.54131459  0.64887533    -0.20400
C911        C  0.11349092  0.72306365  0.64276913    -0.21800
C912        C  0.11240593  0.70030592  0.60458825    -0.09900
C913        C  0.11114351  0.72123752  0.56588510     0.29000
C914        C  0.11062385  0.76406479  0.56567460    -0.21800
C915        C  0.11130565  0.78682157  0.60390507    -0.09900
C916        C  0.11282372  0.76591956  0.64254345     0.29000
F917        F  0.11193586  0.78672154  0.68008883    -0.20400
H918        H  0.11394544  0.70757156  0.67293778     0.17400
H919        H  0.11005117  0.77953576  0.53548956     0.17400
F920        F  0.11152599  0.70047858  0.52826567    -0.20400
C921        C  0.22573596  0.85386495  0.59319516    -0.21800
C922        C  0.20484553  0.89070691  0.59620161    -0.09900
C923        C  0.22792546  0.92787088  0.59724224     0.29000
C924        C  0.27100572  0.92774306  0.59685943    -0.21800
C925        C  0.29189923  0.89061648  0.59498987    -0.09900
C926        C  0.26851314  0.85379957  0.59175403     0.29000
F927        F  0.28680696  0.81772318  0.58509032    -0.20400
H928        H  0.20873115  0.82489080  0.59118947     0.17400
H929        H  0.28809416  0.95664663  0.59905761     0.17400
F930        F  0.20893518  0.96414746  0.60037346    -0.20400
C931        C  0.07414592  0.90414213  0.77015477    -0.21800
C932        C  0.11190347  0.90311519  0.79185045    -0.09900
C933        C  0.14755053  0.90062304  0.76746184     0.29000
C934        C  0.14525301  0.89719371  0.72308081    -0.21800
C935        C  0.10751399  0.89639687  0.70131762    -0.09900
C936        C  0.07183466  0.90068340  0.72546609     0.29000
F937        F  0.03456639  0.89931270  0.70623069    -0.20400
H938        H  0.04625659  0.90583997  0.78797595     0.17400
H939        H  0.17339455  0.89525688  0.70564464     0.17400
F940        F  0.18498777  0.90185728  0.78639794    -0.20400
C941        C  0.23792602  0.92764027  0.86833453    -0.21800
C942        C  0.21534266  0.89835818  0.89103035    -0.09900
C943        C  0.23563384  0.86963744  0.91571449     0.29000
C944        C  0.27826541  0.86937213  0.91645348    -0.21800
C945        C  0.30081482  0.89831840  0.89331964    -0.09900
C946        C  0.28056367  0.92763354  0.86940857     0.29000
F947        F  0.30208093  0.95593599  0.84697234    -0.20400
H948        H  0.22248992  0.95044960  0.84990642     0.17400
H949        H  0.29373343  0.84669320  0.93504107     0.17400
F950        F  0.21418991  0.84242620  0.93956394    -0.20400
C951        C  0.14590896  0.60877498  0.77575473    -0.21800
C952        C  0.10848222  0.60587746  0.79668483    -0.09900
C953        C  0.07232398  0.59937949  0.77266850     0.29000
C954        C  0.07365607  0.59755006  0.72844897    -0.21800
C955        C  0.11100790  0.60191315  0.70752082    -0.09900
C956        C  0.14731757  0.60670036  0.73164741     0.29000
F957        F  0.18434432  0.60839197  0.71289088    -0.20400
H958        H  0.17433809  0.61211576  0.79355584     0.17400
H959        H  0.04530958  0.59390178  0.71053795     0.17400
F960        F  0.03557864  0.59620257  0.79170047    -0.20400
C961        C  0.22880313  0.64794310  0.90277824    -0.21800
C962        C  0.20641849  0.61073394  0.90026364    -0.09900
C963        C  0.22757525  0.57379339  0.89889958     0.29000
C964        C  0.27041789  0.57460000  0.89876499    -0.21800
C965        C  0.29259036  0.61216361  0.89957328    -0.09900
C966        C  0.27136036  0.64884013  0.90217060     0.29000
F967        F  0.29177710  0.68558538  0.90531228    -0.20400
H968        H  0.21333774  0.67651761  0.90608692     0.17400
H969        H  0.28627698  0.54597373  0.89692403     0.17400
F970        F  0.20691693  0.53713450  0.89627126    -0.20400
C971        C  0.14576296  0.73406156  0.88398339    -0.21800
C972        C  0.11083464  0.71207215  0.89768577    -0.09900
C973        C  0.07728415  0.73551750  0.91051917     0.29000
C974        C  0.07913406  0.77880756  0.90921971    -0.21800
C975        C  0.11429992  0.80043571  0.89537274    -0.09900
C976        C  0.14787370  0.77701262  0.88330125     0.29000
F977        F  0.18379607  0.79508488  0.87200108    -0.20400
H978        H  0.17245425  0.71839482  0.87381573     0.17400
H979        H  0.05241575  0.79536664  0.91834433     0.17400
F980        F  0.04184382  0.71706423  0.92276257    -0.20400
O981        O  0.96653859  0.42137150  0.46665701    -0.80700
O982        O  0.55323079  0.08432028  0.47789144    -0.80700
O983        O  0.91679172  0.05213919  0.47007855    -0.80700
O984        O  0.60175361  0.46923513  0.47282744    -0.80600
O985        O  0.97303106  0.08546511  0.45303624    -0.80800
O986        O  0.54265303  0.44445148  0.44952929    -0.80700
O987        O  0.55656507  0.02960542  0.43913977    -0.80700
O988        O  0.93750969  0.47617935  0.44041736    -0.80700
C989        C  0.94330249  0.43806758  0.43923969     1.09000
C990        C  0.56458853  0.06760151  0.44459482     1.08900
C991        C  0.93500017  0.07853561  0.44854073     1.09000
C992        C  0.58194476  0.44546459  0.44700398     1.08900
O993        O  0.53528232  0.40009479  0.02187669    -0.80700
O994        O  0.95422426  0.08359244  0.03955973    -0.80700
O995        O  0.91976207  0.44742703  0.02065799    -0.80700
O996        O  0.58361440  0.03604974  0.02887606    -0.80700
O997        O  0.53101632  0.06303536  0.06052835    -0.80700
O998        O  0.97438735  0.44244663  0.05840345    -0.80700
O999        O  0.55959731  0.45947947  0.04613112    -0.80600
O1000       O  0.92159609  0.02590330  0.05381786    -0.80700
Co1001     Co  0.50879137  0.44964178  0.00518964     1.51500
Co1002     Co  0.00218576  0.07279733  0.50721004     1.51700
Co1003     Co  0.93058401  0.50118702  0.49646595     1.51600
Co1004     Co  0.55267982  0.99446966  0.99179686     1.51500
O1005       O  0.49323555  0.50996336  0.50013821    -1.42600
C1006       C  0.55934294  0.41997922  0.04752352     1.08900
C1007       C  0.92886397  0.06375857  0.06084468     1.09000
C1008       C  0.93649839  0.43431130  0.05301911     1.09000
C1009       C  0.56885621  0.05780516  0.05863492     1.09000
C1010       C  0.59087578  0.09370160  0.41574381     0.86000
C1011       C  0.63657852  0.08721095  0.42289213    -0.57800
C1012       C  0.66116723  0.11126526  0.39833185     0.08900
C1013       C  0.63751115  0.13939727  0.36845075     0.19800
C1014       C  0.58590883  0.14083349  0.42233683    -0.55000
C1015       C  0.61014789  0.16532785  0.39728386     0.09000
C1016       C  0.58333514  0.08623771  0.36844590    -0.54500
C1017       C  0.60794286  0.10995989  0.34344410     0.09600
H1018       H  0.64839867  0.06600477  0.44597130     0.14100
H1019       H  0.65755153  0.15768173  0.34746285    -0.00200
H1020       H  0.56549347  0.15324540  0.44566771     0.14400
H1021       H  0.56181361  0.06297859  0.35606998     0.14200
C1022       C  0.60357536  0.41850224  0.41462853     0.86000
C1023       C  0.59516661  0.37197572  0.42070531    -0.54300
C1024       C  0.61587816  0.34686540  0.39350960     0.08900
C1025       C  0.64285730  0.37156431  0.36236041     0.19800
C1026       C  0.65021310  0.42373559  0.41788273    -0.55000
C1027       C  0.67056621  0.39923087  0.39082193     0.09000
C1028       C  0.59327219  0.42565691  0.36716486    -0.54500
C1029       C  0.61432496  0.40122254  0.33954042     0.09600
H1030       H  0.57559050  0.36020773  0.44552272     0.14100
H1031       H  0.65973281  0.35242953  0.33975424    -0.00200
H1032       H  0.66613151  0.44445546  0.44020637     0.14400
H1033       H  0.57222332  0.44857200  0.35653421     0.14200
C1034       C  0.58747437  0.39871905  0.07893003     0.86000
C1035       C  0.63341410  0.40894458  0.07214414    -0.54300
C1036       C  0.65919399  0.38921086  0.09918397     0.08900
C1037       C  0.63643618  0.36152108  0.13085827     0.19800
C1038       C  0.58398539  0.35180990  0.07598209    -0.55000
C1039       C  0.60942517  0.33220258  0.10301803     0.09000
C1040       C  0.58057387  0.40906192  0.12631922    -0.54500
C1041       C  0.60645514  0.38980769  0.15388274     0.09600
H1042       H  0.64448531  0.42879322  0.04715188     0.14100
H1043       H  0.65737371  0.34526653  0.15238924    -0.00200
H1044       H  0.56311943  0.33531206  0.05430648     0.14400
H1045       H  0.55809951  0.43065011  0.13675357     0.14200
C1046       C  0.59566589  0.08358614  0.08752191     0.86000
C1047       C  0.58956381  0.12958703  0.08007340    -0.54300
C1048       C  0.61314531  0.15488071  0.10574653     0.08900
C1049       C  0.64063920  0.13173929  0.13630541     0.19800
C1050       C  0.64136196  0.07762861  0.08224984    -0.55000
C1051       C  0.66450178  0.10304340  0.10784639     0.09000
C1052       C  0.58787348  0.07756748  0.13499038    -0.54500
C1053       C  0.61185863  0.10275062  0.16068123     0.09600
H1054       H  0.56799893  0.14096714  0.05690023     0.14100
H1055       H  0.66039350  0.15239684  0.15655873    -0.00200
H1056       H  0.65443064  0.05570731  0.06043173     0.14400
H1057       H  0.56608023  0.05500840  0.14702383     0.14200
C1058       C  0.90865354  0.10181988  0.41884068     0.86000
C1059       C  0.91319940  0.14828558  0.42404244    -0.54300
C1060       C  0.88863989  0.16896034  0.39694111     0.08900
C1061       C  0.86172556  0.14137005  0.36759244     0.19800
C1062       C  0.86215452  0.09234390  0.42420731    -0.55000
C1063       C  0.83778567  0.11348548  0.39756807     0.09000
C1064       C  0.91675379  0.09281390  0.37214515    -0.54500
C1065       C  0.89184883  0.11337166  0.34543968     0.09600
H1066       H  0.93450061  0.16338699  0.44632191     0.14100
H1067       H  0.84196360  0.15829789  0.34537502    -0.00200
H1068       H  0.84934765  0.07204320  0.44793762     0.14400
H1069       H  0.93933044  0.07151753  0.36118016     0.14200
C1070       C  0.90510654  0.08857621  0.09142686     0.86000
C1071       C  0.85934756  0.08175197  0.08500467    -0.54300
C1072       C  0.83721055  0.10503359  0.11146664     0.08900
C1073       C  0.86224476  0.13295846  0.14201805     0.19800
C1074       C  0.91227146  0.13573182  0.08674699    -0.55000
C1075       C  0.88972862  0.15926852  0.11325756     0.09000
C1076       C  0.91380955  0.08051779  0.13832063    -0.54500
C1077       C  0.89102388  0.10388267  0.16465725     0.09600
H1078       H  0.84555615  0.06090930  0.06134074     0.14100
H1079       H  0.84358325  0.15031993  0.16465296    -0.00200
H1080       H  0.93226231  0.14932411  0.06329678     0.14400
H1081       H  0.93545010  0.05843115  0.14961205     0.14200
C1082       C  0.90951130  0.40872231  0.08202106     0.86000
C1083       C  0.91622981  0.36229579  0.07912514    -0.54300
C1084       C  0.89141030  0.33901691  0.10487666     0.08900
C1085       C  0.86157127  0.36544155  0.13050112     0.19800
C1086       C  0.86296735  0.41298773  0.07247599    -0.55000
C1087       C  0.83777012  0.39017034  0.09767371     0.09000
C1088       C  0.91427544  0.41997430  0.12883895    -0.54500
C1089       C  0.88918905  0.39743347  0.15439174     0.09600
H1090       H  0.93794513  0.34954798  0.05734644     0.14100
H1091       H  0.84155473  0.34796396  0.15209469    -0.00200
H1092       H  0.85083178  0.43260206  0.04808306     0.14400
H1093       H  0.93551085  0.44377176  0.14070389     0.14200
C1094       C  0.91657286  0.41259308  0.40989640     0.86000
C1095       C  0.87096654  0.41905994  0.41841912    -0.54300
C1096       C  0.84546251  0.39643227  0.39226510     0.08900
C1097       C  0.86735740  0.36939710  0.36049764     0.19800
C1098       C  0.92178869  0.36640245  0.41351723    -0.55000
C1099       C  0.89576205  0.34387618  0.38781781     0.09000
C1100       C  0.92183591  0.42193442  0.36273779    -0.54500
C1101       C  0.89584801  0.39919387  0.33673314     0.09600
H1102       H  0.85988818  0.43981237  0.44263925     0.14100
H1103       H  0.84608835  0.35058383  0.33995817    -0.00200
H1104       H  0.94327034  0.35251465  0.43514006     0.14400
H1105       H  0.94323035  0.44516994  0.35132666     0.14200
C1106       C  0.85634824  0.39912659  0.26882246    -0.21800
C1107       C  0.89419918  0.40287656  0.29013490    -0.09900
C1108       C  0.93001017  0.40773012  0.26650633     0.29000
C1109       C  0.92790288  0.40731336  0.22233921    -0.21800
C1110       C  0.89022876  0.40182857  0.20103102    -0.09900
C1111       C  0.85425089  0.39858448  0.22463636     0.29000
F1112       F  0.81705047  0.39531168  0.20521010    -0.20400
H1113       H  0.82824031  0.39640807  0.28636820     0.17400
H1114       H  0.95598475  0.40953123  0.20475346     0.17400
F1115       F  0.96721591  0.41039634  0.28584489    -0.20400
C1116       C  0.92611442  0.22733384  0.09967829    -0.21800
C1117       C  0.89077216  0.20534839  0.11243176    -0.09900
C1118       C  0.85660673  0.22798233  0.12381443     0.29000
C1119       C  0.85785775  0.27071267  0.12226473    -0.21800
C1120       C  0.89236356  0.29290096  0.10791525    -0.09900
C1121       C  0.92705332  0.27032764  0.09734694     0.29000
F1122       F  0.96264403  0.28938242  0.08644587    -0.20400
H1123       H  0.95358731  0.21136009  0.09200518     0.17400
H1124       H  0.83081095  0.28581383  0.13207651     0.17400
F1125       F  0.82094670  0.20939917  0.13510116    -0.20400
C1126       C  0.92898630  0.11219763  0.23300931    -0.21800
C1127       C  0.89265202  0.10175356  0.21098673    -0.09900
C1128       C  0.85654915  0.09415182  0.23338239     0.29000
C1129       C  0.85671335  0.09736172  0.27739355    -0.21800
C1130       C  0.89278992  0.10840205  0.29935684    -0.09900
C1131       C  0.92895984  0.11596381  0.27715883     0.29000
F1132       F  0.96329476  0.12952699  0.29806060    -0.20400
H1133       H  0.95670659  0.11934503  0.21590972     0.17400
H1134       H  0.82862400  0.09160832  0.29437436     0.17400
F1135       F  0.82104290  0.08417319  0.21265580    -0.20400
C1136       C  0.88946412  0.23253040  0.35505054    -0.21800
C1137       C  0.88892914  0.21374211  0.39479233    -0.09900
C1138       C  0.88889388  0.23783325  0.43199705     0.29000
C1139       C  0.89101325  0.28029375  0.42933241    -0.21800
C1140       C  0.89265276  0.29910613  0.38964200    -0.09900
C1141       C  0.89110543  0.27510248  0.35237740     0.29000
F1142       F  0.89266879  0.29266984  0.31361425    -0.20400
H1143       H  0.88957603  0.21422961  0.32610742     0.17400
H1144       H  0.89095039  0.29858395  0.45829233     0.17400
F1145       F  0.88584629  0.22040376  0.47074031    -0.20400
C1146       C  0.73023994  0.13435097  0.08785094    -0.21800
C1147       C  0.70862462  0.10292316  0.10820111    -0.09900
C1148       C  0.72908780  0.07166776  0.12882575     0.29000
C1149       C  0.77146483  0.07221564  0.12944203    -0.21800
C1150       C  0.79308890  0.10409064  0.10979022    -0.09900
C1151       C  0.77261440  0.13469984  0.08817058     0.29000
F1152       F  0.79358770  0.16411499  0.06669432    -0.20400
H1153       H  0.71423570  0.15817730  0.07145207     0.17400
H1154       H  0.78742312  0.04808255  0.14536365     0.17400
F1155       F  0.70807139  0.04131681  0.14887655    -0.20400
C1156       C  0.61349077  0.22306315  0.14276890    -0.21800
C1157       C  0.61240551  0.20030550  0.10458802    -0.09900
C1158       C  0.61114440  0.22123715  0.06588487     0.29000
C1159       C  0.61062570  0.26406438  0.06567437    -0.21800
C1160       C  0.61130711  0.28682110  0.10390480    -0.09900
C1161       C  0.61282464  0.26591905  0.14254326     0.29000
F1162       F  0.61193694  0.28672091  0.18008871    -0.20400
H1163       H  0.61394467  0.20757100  0.17293762     0.17400
H1164       H  0.61005381  0.27953540  0.03548924     0.17400
F1165       F  0.61152736  0.20047822  0.02826550    -0.20400
C1166       C  0.72573550  0.35386560  0.09319119    -0.21800
C1167       C  0.70484518  0.39070737  0.09620142    -0.09900
C1168       C  0.72792511  0.42787130  0.09724595     0.29000
C1169       C  0.77100535  0.42774346  0.09686378    -0.21800
C1170       C  0.79189874  0.39061699  0.09499074    -0.09900
C1171       C  0.76851271  0.35380038  0.09175044     0.29000
F1172       F  0.78680672  0.31772473  0.08508265    -0.20400
H1173       H  0.70873062  0.32489169  0.09118240     0.17400
H1174       H  0.78809388  0.45664688  0.09906509     0.17400
F1175       F  0.70893481  0.46414762  0.10038035    -0.20400
C1176       C  0.57414288  0.40413558  0.27015444    -0.21800
C1177       C  0.61190047  0.40311210  0.29185048    -0.09900
C1178       C  0.64754804  0.40062285  0.26746225     0.29000
C1179       C  0.64525120  0.39719414  0.22308117    -0.21800
C1180       C  0.60751242  0.39639472  0.20131755    -0.09900
C1181       C  0.57183230  0.40067734  0.22546567     0.29000
F1182       F  0.53456424  0.39930304  0.20622971    -0.20400
H1183       H  0.54625318  0.40583045  0.28797545     0.17400
H1184       H  0.67339323  0.39525965  0.20564512     0.17400
F1185       F  0.68498498  0.40185925  0.28639898    -0.20400
C1186       C  0.73792420  0.42763866  0.36833218    -0.21800
C1187       C  0.71534091  0.39835745  0.39102920    -0.09900
C1188       C  0.73563226  0.36963748  0.41571420     0.29000
C1189       C  0.77826388  0.36937272  0.41645372    -0.21800
C1190       C  0.80081325  0.39831853  0.39331922    -0.09900
C1191       C  0.78056186  0.42763219  0.36940629     0.29000
F1192       F  0.80207887  0.45593349  0.34696831    -0.20400
H1193       H  0.72248802  0.45044720  0.34990311     0.17400
H1194       H  0.79373202  0.34669444  0.43504227     0.17400
F1195       F  0.71418835  0.34242657  0.43956403    -0.20400
C1196       C  0.64590815  0.10877721  0.27575364    -0.21800
C1197       C  0.60848151  0.10587690  0.29668368    -0.09900
C1198       C  0.57232384  0.09937506  0.27266717     0.29000
C1199       C  0.57365635  0.09754509  0.22844762    -0.21800
C1200       C  0.61100800  0.10191168  0.20751961    -0.09900
C1201       C  0.64731717  0.10670228  0.23164643     0.29000
F1202       F  0.68434410  0.10839691  0.21289041    -0.20400
H1203       H  0.67433712  0.11212034  0.29355465     0.17400
H1204       H  0.54531021  0.09389397  0.21053654     0.17400
F1205       F  0.53557844  0.09619506  0.29169876    -0.20400
C1206       C  0.72880348  0.14794342  0.40277285    -0.21800
C1207       C  0.70641900  0.11073404  0.40026084    -0.09900
C1208       C  0.72757616  0.07379364  0.39889937     0.29000
C1209       C  0.77041887  0.07460060  0.39876454    -0.21800
C1210       C  0.79259110  0.11216443  0.39957011    -0.09900
C1211       C  0.77136069  0.14884085  0.40216507     0.29000
F1212       F  0.79177692  0.18558651  0.40530488    -0.20400
H1213       H  0.71333806  0.17651795  0.40608026     0.17400
H1214       H  0.78627812  0.04597444  0.39692572     0.17400
F1215       F  0.70691821  0.03713442  0.39627400    -0.20400
C1216       C  0.64576266  0.23406149  0.38398429    -0.21800
C1217       C  0.61083450  0.21207168  0.39768633    -0.09900
C1218       C  0.57728396  0.23551655  0.41052051     0.29000
C1219       C  0.57913354  0.27880662  0.40922178    -0.21800
C1220       C  0.61429925  0.30043510  0.39537496    -0.09900
C1221       C  0.64787330  0.27701251  0.38330348     0.29000
F1222       F  0.68379569  0.29508526  0.37200408    -0.20400
H1223       H  0.67245370  0.21839517  0.37381546     0.17400
H1224       H  0.55241522  0.29536536  0.41834653     0.17400
F1225       F  0.54184367  0.21706285  0.42276345    -0.20400
O1226       O  0.96653521  0.42136969  0.96665976    -0.80700
O1227       O  0.55322672  0.08432027  0.97789067    -0.80700
O1228       O  0.91678956  0.05214116  0.97008420    -0.80700
O1229       O  0.60175253  0.46922752  0.97282594    -0.80600
O1230       O  0.97302925  0.08546393  0.95303802    -0.80800
O1231       O  0.54265033  0.44444556  0.94953020    -0.80700
O1232       O  0.55656100  0.02960411  0.93914101    -0.80700
O1233       O  0.93750870  0.47617757  0.94041754    -0.80700
C1234       C  0.94329913  0.43806531  0.93924205     1.09000
C1235       C  0.56458525  0.06759983  0.94459497     1.08900
C1236       C  0.93499833  0.07853467  0.94854290     1.09000
C1237       C  0.58194200  0.44545696  0.94700357     1.08900
O1238       O  0.53528483  0.40009703  0.52187279    -0.80700
O1239       O  0.95422631  0.08359418  0.53955695    -0.80700
O1240       O  0.91976323  0.44742381  0.52065592    -0.80700
O1241       O  0.58361741  0.03604748  0.52887510    -0.80700
O1242       O  0.53101931  0.06303440  0.56052672    -0.80700
O1243       O  0.97438822  0.44244498  0.55840214    -0.80700
O1244       O  0.55959793  0.45948103  0.54613114    -0.80600
O1245       O  0.92159605  0.02590599  0.55381408    -0.80700
Co1246     Co  0.50879333  0.44964454  0.50518856     1.51500
Co1247     Co  0.00218399  0.07279786  0.00721220     1.51700
Co1248     Co  0.93058565  0.50118853  0.99646507     1.51600
Co1249     Co  0.55268144  0.99446895  0.49179506     1.51500
O1250       O  0.49323688  0.50996179  0.00013651    -1.42600
C1251       C  0.55934418  0.41998064  0.54752140     1.08900
C1252       C  0.92886483  0.06376097  0.56084092     1.09000
C1253       C  0.93649931  0.43430954  0.55301778     1.09000
C1254       C  0.56885924  0.05780359  0.55863352     1.09000
C1255       C  0.59087354  0.09369705  0.91574258     0.86000
C1256       C  0.63657640  0.08720365  0.92288875    -0.57800
C1257       C  0.66116536  0.11125615  0.89832661     0.08900
C1258       C  0.63750906  0.13938881  0.86844618     0.19800
C1259       C  0.58590942  0.14082909  0.92233465    -0.55000
C1260       C  0.61014773  0.16532142  0.89727922     0.09000
C1261       C  0.58333024  0.08623242  0.86844503    -0.54500
C1262       C  0.60793841  0.10995241  0.84344175     0.09600
H1263       H  0.64839630  0.06599749  0.94596791     0.14100
H1264       H  0.65754926  0.15767205  0.84745685    -0.00200
H1265       H  0.56549541  0.15324268  0.94566581     0.14400
H1266       H  0.56180661  0.06297455  0.85607028     0.14200
C1267       C  0.60357084  0.41849471  0.91462591     0.86000
C1268       C  0.59516145  0.37196746  0.92069863    -0.54300
C1269       C  0.61587235  0.34685895  0.89349989     0.08900
C1270       C  0.64285118  0.37156035  0.86235252     0.19800
C1271       C  0.65020871  0.42372671  0.91787941    -0.55000
C1272       C  0.67056101  0.39922405  0.89081592     0.09000
C1273       C  0.59326676  0.42565318  0.86716324    -0.54500
C1274       C  0.61431860  0.40122072  0.83953639     0.09600
H1275       H  0.57558585  0.36019779  0.94551535     0.14100
H1276       H  0.65972609  0.35242802  0.83974346    -0.00200
H1277       H  0.66612796  0.44444442  0.94020449     0.14400
H1278       H  0.57221788  0.44856924  0.85653486     0.14200
C1279       C  0.58747407  0.39871948  0.57892824     0.86000
C1280       C  0.63341408  0.40894539  0.57214471    -0.54300
C1281       C  0.65919305  0.38921207  0.59918596     0.08900
C1282       C  0.63643333  0.36152222  0.63085925     0.19800
C1283       C  0.58398569  0.35181002  0.57598009    -0.55000
C1284       C  0.60942425  0.33220280  0.60301775     0.09000
C1285       C  0.58057070  0.40906228  0.62631667    -0.54500
C1286       C  0.60645078  0.38980862  0.65388125     0.09600
H1287       H  0.64448606  0.42879329  0.54715216     0.14100
H1288       H  0.65736940  0.34526866  0.65239271    -0.00200
H1289       H  0.56312127  0.33531209  0.55430297     0.14400
H1290       H  0.55809548  0.43064997  0.63675013     0.14200
C1291       C  0.59566881  0.08358428  0.58752082     0.86000
C1292       C  0.58957024  0.12958558  0.58006997    -0.54300
C1293       C  0.61315058  0.15487902  0.60574473     0.08900
C1294       C  0.64064007  0.13173645  0.63630721     0.19800
C1295       C  0.64136517  0.07762367  0.58225387    -0.55000
C1296       C  0.66450412  0.10303801  0.60785207     0.09000
C1297       C  0.58787138  0.07756745  0.63498831    -0.54500
C1298       C  0.61185541  0.10274978  0.66068057     0.09600
H1299       H  0.56800773  0.14096608  0.55689462     0.14100
H1300       H  0.66039349  0.15239321  0.65656239    -0.00200
H1301       H  0.65443456  0.05570129  0.56043733     0.14400
H1302       H  0.56607644  0.05500925  0.64702030     0.14200
C1303       C  0.90865262  0.10181723  0.91884038     0.86000
C1304       C  0.91319221  0.14828305  0.92404703    -0.54300
C1305       C  0.88863393  0.16895731  0.89694402     0.08900
C1306       C  0.86172710  0.14136616  0.86758874     0.19800
C1307       C  0.86215363  0.09233510  0.92419903    -0.55000
C1308       C  0.83778565  0.11347639  0.89755850     0.09000
C1309       C  0.91676108  0.09281660  0.87214540    -0.54500
C1310       C  0.89185764  0.11337392  0.84543828     0.09600
H1311       H  0.93448912  0.16338491  0.94633052     0.14100
H1312       H  0.84196623  0.15829291  0.84536940    -0.00200
H1313       H  0.84934584  0.07203178  0.94792660     0.14400
H1314       H  0.93934179  0.07152407  0.86118181     0.14200
C1315       C  0.90510913  0.08857824  0.59142455     0.86000
C1316       C  0.85934963  0.08174980  0.58501080    -0.54300
C1317       C  0.83721481  0.10503109  0.61147530     0.08900
C1318       C  0.86225227  0.13295956  0.64202103     0.19800
C1319       C  0.91226923  0.13573377  0.58674030    -0.55000
C1320       C  0.88972994  0.15926997  0.61325467     0.09000
C1321       C  0.91382097  0.08052346  0.63831749    -0.54500
C1322       C  0.89103806  0.10388814  0.66465664     0.09600
H1323       H  0.84555615  0.06090576  0.56134926     0.14100
H1324       H  0.84359302  0.15031981  0.66465907    -0.00200
H1325       H  0.93225569  0.14932613  0.56328614     0.14400
H1326       H  0.93546470  0.05843894  0.64960651     0.14200
C1327       C  0.90951233  0.40872248  0.58202129     0.86000
C1328       C  0.91623354  0.36229658  0.57913012    -0.54300
C1329       C  0.89141531  0.33901850  0.60488363     0.08900
C1330       C  0.86157399  0.36544414  0.63050470     0.19800
C1331       C  0.86296822  0.41298426  0.57247437    -0.55000
C1332       C  0.83777134  0.39016826  0.59767409     0.09000
C1333       C  0.91427511  0.41997930  0.62883826    -0.54500
C1334       C  0.88918948  0.39743970  0.65439278     0.09600
H1335       H  0.93794922  0.34954888  0.55735194     0.14100
H1336       H  0.84155804  0.34796883  0.65210052    -0.00200
H1337       H  0.85083239  0.43259549  0.54807883     0.14400
H1338       H  0.93550957  0.44377842  0.64070140     0.14200
C1339       C  0.91656861  0.41259068  0.90989923     0.86000
C1340       C  0.87096189  0.41906168  0.91841749    -0.54300
C1341       C  0.84545823  0.39643393  0.89226276     0.08900
C1342       C  0.86735380  0.36939554  0.86049896     0.19800
C1343       C  0.92178019  0.36639972  0.91352399    -0.55000
C1344       C  0.89575373  0.34387387  0.88782394     0.09000
C1345       C  0.92183609  0.42192870  0.86274050    -0.54500
C1346       C  0.89584841  0.39918913  0.83673477     0.09600
H1347       H  0.85988316  0.43981543  0.94263608     0.14100
H1348       H  0.84608485  0.35058276  0.83995889    -0.00200
H1349       H  0.94325918  0.35251157  0.93514950     0.14400
H1350       H  0.94323210  0.44516307  0.85133031     0.14200
C1351       C  0.85634905  0.39912704  0.76882343    -0.21800
C1352       C  0.89419998  0.40287458  0.79013629    -0.09900
C1353       C  0.93001065  0.40773335  0.76650776     0.29000
C1354       C  0.92790327  0.40732117  0.72234049    -0.21800
C1355       C  0.89022929  0.40183662  0.70103203    -0.09900
C1356       C  0.85425155  0.39859079  0.72463729     0.29000
F1357       F  0.81705111  0.39532198  0.70521060    -0.20400
H1358       H  0.82824094  0.39640685  0.78636886     0.17400
H1359       H  0.95598489  0.40954202  0.70475478     0.17400
F1360       F  0.96721640  0.41040125  0.78584604    -0.20400
C1361       C  0.92611630  0.22733427  0.59967318    -0.21800
C1362       C  0.89077558  0.20534959  0.61243221    -0.09900
C1363       C  0.85661468  0.22798426  0.62382687     0.29000
C1364       C  0.85786843  0.27071454  0.62228371    -0.21800
C1365       C  0.89237031  0.29290256  0.60792428    -0.09900
C1366       C  0.92705668  0.27032825  0.59734535     0.29000
F1367       F  0.96264597  0.28938152  0.58643716    -0.20400
H1368       H  0.95358667  0.21135981  0.59199230     0.17400
H1369       H  0.83082634  0.28581492  0.63210901     0.17400
F1370       F  0.82095576  0.20940233  0.63511900    -0.20400
C1371       C  0.92899849  0.11222768  0.73300829    -0.21800
C1372       C  0.89267025  0.10175899  0.71098573    -0.09900
C1373       C  0.85657208  0.09413294  0.73338096     0.29000
C1374       C  0.85673405  0.09734259  0.77739192    -0.21800
C1375       C  0.89280389  0.10840637  0.79935562    -0.09900
C1376       C  0.92896995  0.11599242  0.77715827     0.29000
F1377       F  0.96329737  0.12957578  0.79806096    -0.20400
H1378       H  0.95671435  0.11939380  0.71590845     0.17400
H1379       H  0.82864788  0.09157076  0.79437240     0.17400
F1380       F  0.82107190  0.08413154  0.71265359    -0.20400
C1381       C  0.88945514  0.23252868  0.85505615    -0.21800
C1382       C  0.88891991  0.21373936  0.89479736    -0.09900
C1383       C  0.88888249  0.23782976  0.93200266     0.29000
C1384       C  0.89100139  0.28029064  0.92933894    -0.21800
C1385       C  0.89264204  0.29910377  0.88964881    -0.09900
C1386       C  0.89109526  0.27510068  0.85238399     0.29000
F1387       F  0.89265900  0.29266851  0.81362114    -0.20400
H1388       H  0.88956886  0.21422896  0.82611260     0.17400
H1389       H  0.89093794  0.29858042  0.95829914     0.17400
F1390       F  0.88583411  0.22039924  0.97074539    -0.20400
C1391       C  0.73024283  0.13435159  0.58786775    -0.21800
C1392       C  0.70862743  0.10291836  0.60820921    -0.09900
C1393       C  0.72909109  0.07165942  0.62882770     0.29000
C1394       C  0.77146843  0.07220846  0.62944519    -0.21800
C1395       C  0.79309252  0.10408872  0.60980163    -0.09900
C1396       C  0.77261735  0.13470198  0.58818885     0.29000
F1397       F  0.79358994  0.16412184  0.56671856    -0.20400
H1398       H  0.71423855  0.15818089  0.57147372     0.17400
H1399       H  0.78742677  0.04807208  0.64536094     0.17400
F1400       F  0.70807497  0.04130422  0.64887218    -0.20400
C1401       C  0.61349469  0.22306210  0.64276761    -0.21800
C1402       C  0.61241128  0.20030445  0.60458659    -0.09900
C1403       C  0.61115080  0.22123688  0.56588372     0.29000
C1404       C  0.61062893  0.26406423  0.56567374    -0.21800
C1405       C  0.61130789  0.28682084  0.60390428    -0.09900
C1406       C  0.61282660  0.26591815  0.64254247     0.29000
F1407       F  0.61193864  0.28671949  0.68008820    -0.20400
H1408       H  0.61394855  0.20756972  0.67293636     0.17400
H1409       H  0.61005709  0.27953552  0.53548874     0.17400
F1410       F  0.61153763  0.20047866  0.52826410    -0.20400
C1411       C  0.72573511  0.35386337  0.59322504    -0.21800
C1412       C  0.70484482  0.39070718  0.59620480    -0.09900
C1413       C  0.72792537  0.42787119  0.59721631     0.29000
C1414       C  0.77100579  0.42774202  0.59683376    -0.21800
C1415       C  0.79189913  0.39061399  0.59499175    -0.09900
C1416       C  0.76851192  0.35379614  0.59178240     0.29000
F1417       F  0.78680341  0.31771544  0.58513981    -0.20400
H1418       H  0.70873043  0.32488838  0.59123934     0.17400
H1419       H  0.78809432  0.45664643  0.59901004     0.17400
F1420       F  0.70893606  0.46415056  0.60031825    -0.20400
C1421       C  0.57413492  0.40412802  0.77015164    -0.21800
C1422       C  0.61189330  0.40311391  0.79184719    -0.09900
C1423       C  0.64754165  0.40063425  0.76745912     0.29000
C1424       C  0.64524553  0.39720654  0.72307814    -0.21800
C1425       C  0.60750649  0.39639724  0.70131514    -0.09900
C1426       C  0.57182498  0.40066976  0.72546294     0.29000
F1427       F  0.53455707  0.39928399  0.70622660    -0.20400
H1428       H  0.54624485  0.40581419  0.78797309     0.17400
H1429       H  0.67338789  0.39527877  0.70564162     0.17400
F1430       F  0.68497834  0.40187661  0.78639630    -0.20400
C1431       C  0.73791839  0.42763671  0.86832983    -0.21800
C1432       C  0.71533584  0.39835113  0.89102192    -0.09900
C1433       C  0.73562815  0.36962914  0.91570345     0.29000
C1434       C  0.77825994  0.36936746  0.91644504    -0.21800
C1435       C  0.80080861  0.39831825  0.89331607    -0.09900
C1436       C  0.78055618  0.42763299  0.86940566     0.29000
F1437       F  0.80207226  0.45593763  0.84697119    -0.20400
H1438       H  0.72248153  0.45044685  0.84990351     0.17400
H1439       H  0.79372873  0.34668782  0.93503087     0.17400
F1440       F  0.71418510  0.34241347  0.93954850    -0.20400
C1441       C  0.64590318  0.10876539  0.77575233    -0.21800
C1442       C  0.60847613  0.10586861  0.79668180    -0.09900
C1443       C  0.57231790  0.09937103  0.77266508     0.29000
C1444       C  0.57365073  0.09754399  0.72844546    -0.21800
C1445       C  0.61100308  0.10190844  0.70751833    -0.09900
C1446       C  0.64731243  0.10669253  0.73164540     0.29000
F1447       F  0.68433957  0.10838223  0.71288961    -0.20400
H1448       H  0.67433240  0.11210428  0.79355371     0.17400
H1449       H  0.54530457  0.09389659  0.71053366     0.17400
F1450       F  0.53557212  0.09619259  0.79169643    -0.20400
C1451       C  0.72880227  0.14793347  0.90276066    -0.21800
C1452       C  0.70641755  0.11072416  0.90025354    -0.09900
C1453       C  0.72757517  0.07378366  0.89889449     0.29000
C1454       C  0.77041807  0.07459096  0.89875717    -0.21800
C1455       C  0.79259042  0.11215483  0.89955880    -0.09900
C1456       C  0.77135939  0.14883126  0.90215176     0.29000
F1457       F  0.79177503  0.18557729  0.90528967    -0.20400
H1458       H  0.71333639  0.17650898  0.90606559     0.17400
H1459       H  0.78627750  0.04596456  0.89692059     0.17400
F1460       F  0.70691753  0.03712400  0.89627465    -0.20400
C1461       C  0.64575858  0.23405522  0.88397099    -0.21800
C1462       C  0.61083242  0.21206496  0.89767685    -0.09900
C1463       C  0.57728095  0.23550914  0.91050996     0.29000
C1464       C  0.57912901  0.27879904  0.90920955    -0.21800
C1465       C  0.61429370  0.30042830  0.89536159    -0.09900
C1466       C  0.64786752  0.27700615  0.88328728     0.29000
F1467       F  0.68378812  0.29507935  0.87198313    -0.20400
H1468       H  0.67245049  0.21838872  0.87380185     0.17400
H1469       H  0.55241043  0.29535717  0.91833495     0.17400
F1470       F  0.54184151  0.21705472  0.92275436    -0.20400
O1471       O  0.96653474  0.92136731  0.46665777    -0.80700
O1472       O  0.55322593  0.58431949  0.47789384    -0.80700
O1473       O  0.91678870  0.55214146  0.47008619    -0.80700
O1474       O  0.60175370  0.96922764  0.47282330    -0.80600
O1475       O  0.97302790  0.58546251  0.45303584    -0.80800
O1476       O  0.54265031  0.94444723  0.44952915    -0.80700
O1477       O  0.55655750  0.52960460  0.43914221    -0.80700
O1478       O  0.93751061  0.97617570  0.44041424    -0.80700
C1479       C  0.94329897  0.93806320  0.43923973     1.09000
C1480       C  0.56458231  0.56759997  0.44459674     1.08900
C1481       C  0.93499681  0.57853323  0.44854208     1.09000
C1482       C  0.58194171  0.94545703  0.44700196     1.08900
O1483       O  0.53528483  0.90009629  0.02187376    -0.80700
O1484       O  0.95422927  0.58359755  0.03955666    -0.80700
O1485       O  0.91976287  0.94742264  0.02065268    -0.80700
O1486       O  0.58361434  0.53604531  0.02887747    -0.80700
O1487       O  0.53101708  0.56303344  0.06052938    -0.80700
O1488       O  0.97438748  0.94244479  0.05839983    -0.80700
O1489       O  0.55960008  0.95947999  0.04613074    -0.80600
O1490       O  0.92160237  0.52590898  0.05381888    -0.80700
Co1491     Co  0.50879443  0.94964414  0.00518921     1.51500
Co1492     Co  0.00218416  0.57279898  0.50721043     1.51700
Co1493     Co  0.93058363  0.00118590  0.49646125     1.51600
Co1494     Co  0.55267900  0.49446743  0.99179658     1.51500
O1495       O  0.49323910  0.00996320  0.50013515    -1.42600
C1496       C  0.55934488  0.91997937  0.04752189     1.08900
C1497       C  0.92887009  0.56376452  0.06084359     1.09000
C1498       C  0.93649848  0.93430987  0.05301549     1.09000
C1499       C  0.56885678  0.55780110  0.05863644     1.09000
C1500       C  0.59087078  0.59369671  0.41574456     0.86000
C1501       C  0.63657315  0.58720184  0.42289157    -0.57800
C1502       C  0.66116307  0.61125417  0.39833066     0.08900
C1503       C  0.63750849  0.63938848  0.36845041     0.19800
C1504       C  0.58590730  0.64082861  0.42233740    -0.55000
C1505       C  0.61014653  0.66532062  0.39728296     0.09000
C1506       C  0.58332838  0.58623334  0.36844637    -0.54500
C1507       C  0.60793771  0.60995372  0.34344434     0.09600
H1508       H  0.64839213  0.56599462  0.44597022     0.14100
H1509       H  0.65754967  0.65767247  0.34746262    -0.00200
H1510       H  0.56549223  0.65324280  0.44566753     0.14400
H1511       H  0.56180391  0.56297678  0.35607029     0.14200
C1512       C  0.60356837  0.91849291  0.41462482     0.86000
C1513       C  0.59515687  0.87196582  0.42069770    -0.54300
C1514       C  0.61586729  0.84685662  0.39349929     0.08900
C1515       C  0.64284724  0.87155670  0.36235198     0.19800
C1516       C  0.65020605  0.92372326  0.41787842    -0.55000
C1517       C  0.67055757  0.89922006  0.39081523     0.09000
C1518       C  0.59326467  0.92565150  0.36716217    -0.54500
C1519       C  0.61431566  0.90121787  0.33953578     0.09600
H1520       H  0.57558054  0.86019650  0.44551403     0.14100
H1521       H  0.65972166  0.85242314  0.33974345    -0.00200
H1522       H  0.66612603  0.94444134  0.44020269     0.14400
H1523       H  0.57221682  0.94856831  0.35653351     0.14200
C1524       C  0.58747354  0.89871679  0.07892919     0.86000
C1525       C  0.63341394  0.90894196  0.07214728    -0.54300
C1526       C  0.65919188  0.88920774  0.09918883     0.08900
C1527       C  0.63643102  0.86151757  0.13086079     0.19800
C1528       C  0.58398453  0.85180711  0.07598016    -0.55000
C1529       C  0.60942224  0.83219894  0.10301811     0.09000
C1530       C  0.58056908  0.90905870  0.12631755    -0.54500
C1531       C  0.60644830  0.88980406  0.15388217     0.09600
H1532       H  0.64448696  0.92879056  0.04715579     0.14100
H1533       H  0.65736639  0.84526366  0.15239455    -0.00200
H1534       H  0.56312067  0.83530979  0.05430186     0.14400
H1535       H  0.55809405  0.93064644  0.13675110     0.14200
C1536       C  0.59566790  0.58358082  0.08752325     0.86000
C1537       C  0.58957477  0.62958216  0.08006784    -0.54300
C1538       C  0.61315722  0.65487520  0.10574082     0.08900
C1539       C  0.64064399  0.63173214  0.13630575     0.19800
C1540       C  0.64136343  0.57761421  0.08225765    -0.55000
C1541       C  0.66450494  0.60302814  0.10785350     0.09000
C1542       C  0.58786899  0.57756941  0.13499149    -0.54500
C1543       C  0.61185560  0.60275144  0.16068186     0.09600
H1544       H  0.56801303  0.64096311  0.05689186     0.14100
H1545       H  0.66039954  0.65238878  0.15655892    -0.00200
H1546       H  0.65443058  0.55568955  0.06044206     0.14400
H1547       H  0.56607104  0.55501516  0.14702536     0.14200
C1548       C  0.90864978  0.60181560  0.41884014     0.86000
C1549       C  0.91318774  0.64828144  0.42404943    -0.54300
C1550       C  0.88862808  0.66895642  0.39694848     0.08900
C1551       C  0.86172142  0.64136593  0.36759265     0.19800
C1552       C  0.86215129  0.59233119  0.42419925    -0.55000
C1553       C  0.83778201  0.61347321  0.39756095     0.09000
C1554       C  0.91675723  0.59281809  0.37214403    -0.54500
C1555       C  0.89185223  0.61337651  0.34543887     0.09600
H1556       H  0.93448511  0.66338281  0.44633286     0.14100
H1557       H  0.84195886  0.65829354  0.34537558    -0.00200
H1558       H  0.84934458  0.57202578  0.44792566     0.14400
H1559       H  0.93933827  0.57152678  0.36117844     0.14200
C1560       C  0.90511237  0.58858302  0.09142447     0.86000
C1561       C  0.85935376  0.58175337  0.08500519    -0.54300
C1562       C  0.83721533  0.60503495  0.11146564     0.08900
C1563       C  0.86224840  0.63296558  0.14201288     0.19800
C1564       C  0.91227255  0.63573838  0.08673896    -0.55000
C1565       C  0.88972933  0.65927489  0.11324909     0.09000
C1566       C  0.91381880  0.58053071  0.13831919    -0.54500
C1567       C  0.89103208  0.60389633  0.16465434     0.09600
H1568       H  0.84556345  0.56090694  0.06134421     0.14100
H1569       H  0.84358599  0.65032737  0.16464687    -0.00200
H1570       H  0.93226269  0.64933056  0.06328791     0.14400
H1571       H  0.93546203  0.55844758  0.14961220     0.14200
C1572       C  0.90951138  0.90872444  0.08202002     0.86000
C1573       C  0.91623451  0.86229896  0.07913144    -0.54300
C1574       C  0.89141677  0.83902169  0.10488567     0.08900
C1575       C  0.86157424  0.86544687  0.13050534     0.19800
C1576       C  0.86296688  0.91298419  0.07247251    -0.55000
C1577       C  0.83777066  0.89016848  0.09767354     0.09000
C1578       C  0.91427365  0.91998376  0.12883657    -0.54500
C1579       C  0.88918852  0.89744442  0.15439182     0.09600
H1580       H  0.93795081  0.84955026  0.05735453     0.14100
H1581       H  0.84155909  0.84797119  0.15210198    -0.00200
H1582       H  0.85083045  0.93259412  0.04807610     0.14400
H1583       H  0.93550778  0.94378328  0.14069906     0.14200
C1584       C  0.91656609  0.91258972  0.40989787     0.86000
C1585       C  0.87095974  0.91906748  0.41841295    -0.54300
C1586       C  0.84545461  0.89644108  0.39225838     0.08900
C1587       C  0.86734831  0.86939726  0.36049815     0.19800
C1588       C  0.92177117  0.86639834  0.41352690    -0.55000
C1589       C  0.89574322  0.84387370  0.38782731     0.09000
C1590       C  0.92183721  0.92192345  0.36273873    -0.54500
C1591       C  0.89584787  0.89918566  0.33673326     0.09600
H1592       H  0.85988245  0.93982316  0.44263055     0.14100
H1593       H  0.84607798  0.85058586  0.33995825    -0.00200
H1594       H  0.94324787  0.85250926  0.43515415     0.14400
H1595       H  0.94323615  0.94515479  0.35132800     0.14200
C1596       C  0.85634863  0.89913113  0.26882194    -0.21800
C1597       C  0.89420005  0.90287188  0.29013478    -0.09900
C1598       C  0.93001127  0.90772729  0.26650641     0.29000
C1599       C  0.92790372  0.90731940  0.22233912    -0.21800
C1600       C  0.89022908  0.90184124  0.20103077    -0.09900
C1601       C  0.85425114  0.89859822  0.22463575     0.29000
F1602       F  0.81705070  0.89533434  0.20520843    -0.20400
H1603       H  0.82824045  0.89641357  0.28636726     0.17400
H1604       H  0.95598533  0.90953740  0.20475314     0.17400
F1605       F  0.96721738  0.91038710  0.28584465    -0.20400
C1606       C  0.92611974  0.72733911  0.09967876    -0.21800
C1607       C  0.89077546  0.70535404  0.11242713    -0.09900
C1608       C  0.85661167  0.72798775  0.12381408     0.29000
C1609       C  0.85786678  0.77071803  0.12227593    -0.21800
C1610       C  0.89237201  0.79290646  0.10792611    -0.09900
C1611       C  0.92706097  0.77033328  0.09735424     0.29000
F1612       F  0.96265297  0.78938815  0.08645718    -0.20400
H1613       H  0.95359178  0.71136470  0.09200400     0.17400
H1614       H  0.83082317  0.78581864  0.13209687     0.17400
F1615       F  0.82094900  0.70940461  0.13509271    -0.20400
C1616       C  0.92899277  0.61222257  0.23300791    -0.21800
C1617       C  0.89266057  0.60177158  0.21098427    -0.09900
C1618       C  0.85655850  0.59416392  0.23337907     0.29000
C1619       C  0.85672192  0.59736958  0.27739025    -0.21800
C1620       C  0.89279653  0.60841336  0.29935523    -0.09900
C1621       C  0.92896525  0.61598566  0.27715809     0.29000
F1622       F  0.96329738  0.62955472  0.29806130    -0.20400
H1623       H  0.95671198  0.61937605  0.21590893     0.17400
H1624       H  0.82863318  0.59160982  0.29436993     0.17400
F1625       F  0.82105337  0.58418293  0.21265165    -0.20400
C1626       C  0.88944343  0.73252802  0.35506121    -0.21800
C1627       C  0.88891318  0.71373865  0.39480248    -0.09900
C1628       C  0.88887859  0.73782925  0.43200782     0.29000
C1629       C  0.89099359  0.78029027  0.42934358    -0.21800
C1630       C  0.89262934  0.79910345  0.38965311    -0.09900
C1631       C  0.89108086  0.77509993  0.35238860     0.29000
F1632       F  0.89264153  0.79266724  0.31362540    -0.20400
H1633       H  0.88955573  0.71422833  0.32611743     0.17400
H1634       H  0.89093234  0.79858011  0.45830388     0.17400
F1635       F  0.88583725  0.72039884  0.47075119    -0.20400
C1636       C  0.73023966  0.63433569  0.08784865    -0.21800
C1637       C  0.70862819  0.60290881  0.10820449    -0.09900
C1638       C  0.72909578  0.57165800  0.12883211     0.29000
C1639       C  0.77147318  0.57221060  0.12944649    -0.21800
C1640       C  0.79309322  0.60408623  0.10979078    -0.09900
C1641       C  0.77261421  0.63468982  0.08816729     0.29000
F1642       F  0.79358319  0.66410537  0.06668728    -0.20400
H1643       H  0.71423226  0.65815822  0.07144732     0.17400
H1644       H  0.78743484  0.54808114  0.14537035     0.17400
F1645       F  0.70808364  0.54130800  0.14888888    -0.20400
C1646       C  0.61349900  0.72305719  0.14276463    -0.21800
C1647       C  0.61241768  0.70030061  0.10458303    -0.09900
C1648       C  0.61115566  0.72123392  0.06588074     0.29000
C1649       C  0.61062999  0.76406125  0.06567199    -0.21800
C1650       C  0.61130703  0.78681684  0.10390323    -0.09900
C1651       C  0.61282734  0.76591304  0.14254076     0.29000
F1652       F  0.61193771  0.78671277  0.18008734    -0.20400
H1653       H  0.61395356  0.70756412  0.17293279     0.17400
H1654       H  0.61005703  0.77953335  0.03548748     0.17400
F1655       F  0.61154409  0.70047666  0.02826061    -0.20400
C1656       C  0.72573482  0.85386067  0.09322387    -0.21800
C1657       C  0.70484378  0.89070359  0.09620952    -0.09900
C1658       C  0.72792354  0.92786799  0.09722630     0.29000
C1659       C  0.77100397  0.92774012  0.09684226    -0.21800
C1660       C  0.79189823  0.89061303  0.09499278    -0.09900
C1661       C  0.76851167  0.85379491  0.09177862     0.29000
F1662       F  0.78680358  0.81771597  0.08512698    -0.20400
H1663       H  0.70873066  0.82488550  0.09123409     0.17400
H1664       H  0.78809186  0.95664473  0.09902255     0.17400
F1665       F  0.70893330  0.96414635  0.10033400    -0.20400
C1666       C  0.57413169  0.90412140  0.27015177    -0.21800
C1667       C  0.61189039  0.90311070  0.29184698    -0.09900
C1668       C  0.64753894  0.90063272  0.26745919     0.29000
C1669       C  0.64524299  0.89720490  0.22307830    -0.21800
C1670       C  0.60750372  0.89639270  0.20131568    -0.09900
C1671       C  0.57182182  0.90066179  0.22546329     0.29000
F1672       F  0.53455387  0.89927056  0.20622706    -0.20400
H1673       H  0.54624164  0.90580521  0.28797336     0.17400
H1674       H  0.67338523  0.89527864  0.20564177     0.17400
F1675       F  0.68497557  0.90187566  0.28639653    -0.20400
C1676       C  0.73791207  0.92763720  0.36832720    -0.21800
C1677       C  0.71533224  0.89834961  0.39101945    -0.09900
C1678       C  0.73562710  0.86963094  0.41570270     0.29000
C1679       C  0.77825885  0.86937278  0.41644365    -0.21800
C1680       C  0.80080505  0.89832480  0.39331384    -0.09900
C1681       C  0.78055000  0.92763785  0.36940349     0.29000
F1682       F  0.80206336  0.95594516  0.34696980    -0.20400
H1683       H  0.72247303  0.95044584  0.34990110     0.17400
H1684       H  0.79372975  0.84669476  0.43503001     0.17400
F1685       F  0.71418659  0.84241574  0.43955065    -0.20400
C1686       C  0.64590247  0.60876861  0.27575466    -0.21800
C1687       C  0.60847528  0.60587340  0.29668402    -0.09900
C1688       C  0.57231668  0.59938082  0.27266696     0.29000
C1689       C  0.57364946  0.59755498  0.22844716    -0.21800
C1690       C  0.61100238  0.60191489  0.20752009    -0.09900
C1691       C  0.64731182  0.60669637  0.23164759     0.29000
F1692       F  0.68433924  0.60838275  0.21289227    -0.20400
H1693       H  0.67433176  0.61210480  0.29355628     0.17400
H1694       H  0.54530319  0.59391031  0.21053529     0.17400
F1695       F  0.53557087  0.59620446  0.29169845    -0.20400
C1696       C  0.72879975  0.64792950  0.40277225    -0.21800
C1697       C  0.70641483  0.61072079  0.40025878    -0.09900
C1698       C  0.72757183  0.57378005  0.39889402     0.29000
C1699       C  0.77041474  0.57458701  0.39875591    -0.21800
C1700       C  0.79258715  0.61215087  0.39956290    -0.09900
C1701       C  0.77135660  0.64882709  0.40216254     0.29000
F1702       F  0.79177260  0.68557257  0.40530579    -0.20400
H1703       H  0.71333408  0.67650472  0.40608255     0.17400
H1704       H  0.78627397  0.54596088  0.39691449     0.17400
F1705       F  0.70691363  0.53712087  0.39626944    -0.20400
C1706       C  0.64575862  0.73405448  0.38398165    -0.21800
C1707       C  0.61082997  0.71206364  0.39767948    -0.09900
C1708       C  0.57727406  0.73550650  0.41050229     0.29000
C1709       C  0.57912104  0.77879643  0.40920126    -0.21800
C1710       C  0.61428861  0.80042631  0.39536183    -0.09900
C1711       C  0.64786604  0.77700527  0.38329641     0.29000
F1712       F  0.68378802  0.79508006  0.37199927    -0.20400
H1713       H  0.67245343  0.71838802  0.37381944     0.17400
H1714       H  0.55239974  0.79535432  0.41831910     0.17400
F1715       F  0.54183187  0.71705015  0.42273607    -0.20400
O1716       O  0.96653889  0.92137093  0.96665451    -0.80700
O1717       O  0.55322919  0.58431783  0.97789327    -0.80700
O1718       O  0.91679307  0.55214238  0.97008264    -0.80700
O1719       O  0.60175428  0.96923217  0.97282589    -0.80600
O1720       O  0.97303250  0.58546486  0.95303493    -0.80800
O1721       O  0.54265249  0.94444982  0.94952970    -0.80700
O1722       O  0.55656269  0.52960319  0.93914123    -0.80700
O1723       O  0.93751152  0.97617952  0.94041465    -0.80700
C1724       C  0.94330262  0.93806749  0.93923743     1.09000
C1725       C  0.56458694  0.56759897  0.94459656     1.08900
C1726       C  0.93500133  0.57853604  0.94854091     1.09000
C1727       C  0.58194398  0.94546129  0.94700369     1.08900
O1728       O  0.53528364  0.90009602  0.52187540    -0.80700
O1729       O  0.95422515  0.58359453  0.53955896    -0.80700
O1730       O  0.91976037  0.94742459  0.52065459    -0.80700
O1731       O  0.58361172  0.53604888  0.52887851    -0.80700
O1732       O  0.53101415  0.56303424  0.56053171    -0.80700
O1733       O  0.97438522  0.94244609  0.55840142    -0.80700
O1734       O  0.55960035  0.95948005  0.54612979    -0.80600
O1735       O  0.92159843  0.52590551  0.55382052    -0.80700
Co1736     Co  0.50879354  0.94964337  0.50518919     1.51500
Co1737     Co  0.00218796  0.57279908  0.00720932     1.51700
Co1738     Co  0.93058347  0.00118611  0.99646328     1.51600
Co1739     Co  0.55267770  0.49447024  0.49179786     1.51500
O1740       O  0.49323720  0.00996311  0.00013682    -1.42600
C1741       C  0.55934422  0.91997959  0.54752273     1.08900
C1742       C  0.92886564  0.56376125  0.56084548     1.09000
C1743       C  0.93649614  0.93431117  0.55301709     1.09000
C1744       C  0.56885383  0.55780300  0.55863846     1.09000
C1745       C  0.59087554  0.59369824  0.91574609     0.86000
C1746       C  0.63657798  0.58720630  0.92289535    -0.57800
C1747       C  0.66116767  0.61126070  0.89833622     0.08900
C1748       C  0.63751303  0.63939407  0.86845529     0.19800
C1749       C  0.58590927  0.64083003  0.92233983    -0.55000
C1750       C  0.61014908  0.66532416  0.89728770     0.09000
C1751       C  0.58333602  0.58623562  0.86844756    -0.54500
C1752       C  0.60794478  0.60995833  0.84344703     0.09600
H1753       H  0.64839721  0.56599931  0.94597416     0.14100
H1754       H  0.65755430  0.65767928  0.84746868    -0.00200
H1755       H  0.56549300  0.65324243  0.94566963     0.14400
H1756       H  0.56181353  0.56297792  0.85607020     0.14200
C1757       C  0.60357254  0.91849730  0.91462834     0.86000
C1758       C  0.59516205  0.87197078  0.92070453    -0.54300
C1759       C  0.61587327  0.84686033  0.89350855     0.08900
C1760       C  0.64285317  0.87155867  0.86235971     0.19800
C1761       C  0.65021013  0.92372912  0.91788257    -0.55000
C1762       C  0.67056259  0.89922442  0.89082157     0.09000
C1763       C  0.59326949  0.92565265  0.86716483    -0.54500
C1764       C  0.61432144  0.90121779  0.83954021     0.09600
H1765       H  0.57558556  0.86020275  0.94552148     0.14100
H1766       H  0.65972824  0.85242328  0.83975358    -0.00200
H1767       H  0.66612924  0.94444896  0.94020586     0.14400
H1768       H  0.57222120  0.94856827  0.85653438     0.14200
C1769       C  0.58747303  0.89871748  0.57893049     0.86000
C1770       C  0.63341347  0.90894138  0.57214750    -0.54300
C1771       C  0.65919129  0.88920595  0.59918811     0.08900
C1772       C  0.63643078  0.86151602  0.63086012     0.19800
C1773       C  0.58398240  0.85180824  0.57598102    -0.55000
C1774       C  0.60942008  0.83219926  0.60301776     0.09000
C1775       C  0.58057041  0.90905914  0.62631960    -0.54500
C1776       C  0.60644983  0.88980320  0.65388362     0.09600
H1777       H  0.64448667  0.92879064  0.54715665     0.14100
H1778       H  0.65736656  0.84526017  0.65239188    -0.00200
H1779       H  0.56311727  0.83531160  0.55430366     0.14400
H1780       H  0.55809638  0.93064791  0.63675373     0.14200
C1781       C  0.59566434  0.58358353  0.58752474     0.86000
C1782       C  0.58956658  0.62958408  0.58007082    -0.54300
C1783       C  0.61314901  0.65487814  0.60574222     0.08900
C1784       C  0.64064044  0.63173759  0.63630430     0.19800
C1785       C  0.64135987  0.57762097  0.58225493    -0.55000
C1786       C  0.66450119  0.60303628  0.60784925     0.09000
C1787       C  0.58786991  0.57757061  0.63499396    -0.54500
C1788       C  0.61185681  0.60275438  0.66068281     0.09600
H1789       H  0.56800250  0.64096395  0.55689638     0.14100
H1790       H  0.66039589  0.65239594  0.65655559    -0.00200
H1791       H  0.65442720  0.55569701  0.56043865     0.14400
H1792       H  0.56607460  0.55501477  0.64702924     0.14200
C1793       C  0.90865398  0.60181996  0.91884047     0.86000
C1794       C  0.91319683  0.64828586  0.92404539    -0.54300
C1795       C  0.88863632  0.66896093  0.89694522     0.08900
C1796       C  0.86172380  0.64137081  0.86759490     0.19800
C1797       C  0.86215545  0.59234056  0.92420570    -0.55000
C1798       C  0.83778551  0.61348249  0.89756811     0.09000
C1799       C  0.91675517  0.59281787  0.87214399    -0.54500
C1800       C  0.89184902  0.61337637  0.84543985     0.09600
H1801       H  0.93449735  0.66338716  0.94632567     0.14100
H1802       H  0.84196056  0.65829896  0.84537901    -0.00200
H1803       H  0.84934934  0.57203755  0.94793452     0.14400
H1804       H  0.93933302  0.57152350  0.86117756     0.14200
C1805       C  0.90510729  0.58858015  0.59142601     0.86000
C1806       C  0.85934855  0.58175475  0.58500271    -0.54300
C1807       C  0.83721024  0.60503713  0.61146263     0.08900
C1808       C  0.86224305  0.63296414  0.64201315     0.19800
C1809       C  0.91227166  0.63573555  0.58674373    -0.55000
C1810       C  0.88972776  0.65927286  0.61325253     0.09000
C1811       C  0.91380904  0.58052463  0.63832087    -0.54500
C1812       C  0.89102204  0.60389073  0.66465540     0.09600
H1813       H  0.84555819  0.56090999  0.56134012     0.14100
H1814       H  0.84358061  0.65032666  0.66464629    -0.00200
H1815       H  0.93226384  0.64932730  0.56329427     0.14400
H1816       H  0.93544982  0.55843930  0.64961441     0.14200
C1817       C  0.90950911  0.90872404  0.58202039     0.86000
C1818       C  0.91623090  0.86229826  0.57912814    -0.54300
C1819       C  0.89141262  0.83901984  0.60488082     0.08900
C1820       C  0.86157146  0.86544384  0.63050316     0.19800
C1821       C  0.86296462  0.91298571  0.57247429    -0.55000
C1822       C  0.83776853  0.89016852  0.59767388     0.09000
C1823       C  0.91427208  0.91997976  0.62883763    -0.54500
C1824       C  0.88918680  0.89743903  0.65439153     0.09600
H1825       H  0.93794701  0.84955017  0.55735037     0.14100
H1826       H  0.84155613  0.84796659  0.65209836    -0.00200
H1827       H  0.85082804  0.93259796  0.54807991     0.14400
H1828       H  0.93550651  0.94377856  0.64070157     0.14200
C1829       C  0.91657057  0.91259397  0.90989533     0.86000
C1830       C  0.87096461  0.91906686  0.91841580    -0.54300
C1831       C  0.84545904  0.89644025  0.89226225     0.08900
C1832       C  0.86735194  0.86940032  0.86049772     0.19800
C1833       C  0.92178063  0.86640290  0.91351990    -0.55000
C1834       C  0.89575232  0.84387770  0.88782123     0.09000
C1835       C  0.92183642  0.92193142  0.86273631    -0.54500
C1836       C  0.89584674  0.89919240  0.83673225     0.09600
H1837       H  0.85988774  0.93982083  0.94263517     0.14100
H1838       H  0.84608145  0.85058824  0.83995861    -0.00200
H1839       H  0.94326050  0.85251420  0.93514403     0.14400
H1840       H  0.94323358  0.94516396  0.85132438     0.14200
C1841       C  0.85634680  0.89913158  0.76882185    -0.21800
C1842       C  0.89419824  0.90287533  0.79013405    -0.09900
C1843       C  0.93000967  0.90772540  0.76650537     0.29000
C1844       C  0.92790195  0.90731312  0.72233831    -0.21800
C1845       C  0.89022716  0.90183441  0.70103045    -0.09900
C1846       C  0.85424918  0.89859233  0.72463579     0.29000
F1847       F  0.81704869  0.89532294  0.70520924    -0.20400
H1848       H  0.82823866  0.89641543  0.78636779     0.17400
H1849       H  0.95598382  0.90952827  0.70475211     0.17400
F1850       F  0.96721591  0.91038318  0.78584356    -0.20400
C1851       C  0.92611690  0.72733759  0.59967924    -0.21800
C1852       C  0.89077282  0.70535230  0.61242801    -0.09900
C1853       C  0.85660719  0.72798598  0.62380997     0.29000
C1854       C  0.85786011  0.77071617  0.62226572    -0.21800
C1855       C  0.89236689  0.79290450  0.60791950    -0.09900
C1856       C  0.92705713  0.77033163  0.59735177     0.29000
F1857       F  0.96264910  0.78938701  0.58645542    -0.20400
H1858       H  0.95358983  0.71136346  0.59200690     0.17400
H1859       H  0.83081370  0.78581717  0.63207863     0.17400
F1860       F  0.82094489  0.70940278  0.63508965    -0.20400
C1861       C  0.92898520  0.61220233  0.73300812    -0.21800
C1862       C  0.89264909  0.60176553  0.71098542    -0.09900
C1863       C  0.85654455  0.59417306  0.73338134     0.29000
C1864       C  0.85671004  0.59738019  0.77739258    -0.21800
C1865       C  0.89278906  0.60841071  0.79935625    -0.09900
C1866       C  0.92895965  0.61596779  0.77715782     0.29000
F1867       F  0.96329643  0.62952579  0.79805948    -0.20400
H1868       H  0.95670688  0.61934436  0.71590846     0.17400
H1869       H  0.82861972  0.59163200  0.79437318     0.17400
F1870       F  0.82103538  0.58420554  0.71265521    -0.20400
C1871       C  0.88945530  0.73253144  0.85505512    -0.21800
C1872       C  0.88892382  0.71374298  0.89479697    -0.09900
C1873       C  0.88888881  0.73783421  0.93200161     0.29000
C1874       C  0.89100444  0.78029497  0.92933670    -0.21800
C1875       C  0.89264089  0.79910747  0.88964610    -0.09900
C1876       C  0.89109316  0.77510355  0.85238175     0.29000
F1877       F  0.89265376  0.79267065  0.81361838    -0.20400
H1878       H  0.88956731  0.71423085  0.82611190     0.17400
H1879       H  0.89094235  0.79858513  0.95829655     0.17400
F1880       F  0.88584573  0.72040463  0.97074518    -0.20400
C1881       C  0.73023650  0.63434076  0.58784146    -0.21800
C1882       C  0.70862402  0.60291656  0.60820044    -0.09900
C1883       C  0.72909013  0.57166705  0.62883163     0.29000
C1884       C  0.77146729  0.57221826  0.62944677    -0.21800
C1885       C  0.79308847  0.60409054  0.60978702    -0.09900
C1886       C  0.77261102  0.63469304  0.58816022     0.29000
F1887       F  0.79358156  0.66410581  0.56667779    -0.20400
H1888       H  0.71422995  0.65816237  0.57143761     0.17400
H1889       H  0.78742788  0.54809003  0.64537359     0.17400
F1890       F  0.70807672  0.54131868  0.64888969    -0.20400
C1891       C  0.61348734  0.72305904  0.64276530    -0.21800
C1892       C  0.61240753  0.70030260  0.60458380    -0.09900
C1893       C  0.61114763  0.72123498  0.56588106     0.29000
C1894       C  0.61062486  0.76406220  0.56567170    -0.21800
C1895       C  0.61130176  0.78681771  0.60390295    -0.09900
C1896       C  0.61281771  0.76591464  0.64254083     0.29000
F1897       F  0.61192608  0.78671508  0.68008688    -0.20400
H1898       H  0.61393986  0.70756609  0.67293352     0.17400
H1899       H  0.61005425  0.77953413  0.53548719     0.17400
F1900       F  0.61153575  0.70047690  0.52826134    -0.20400
C1901       C  0.72573371  0.85386075  0.59320155    -0.21800
C1902       C  0.70484281  0.89070235  0.59620878    -0.09900
C1903       C  0.72792227  0.92786653  0.59724999     0.29000
C1904       C  0.77100251  0.92773954  0.59686576    -0.21800
C1905       C  0.79189667  0.89061351  0.59499351    -0.09900
C1906       C  0.76851089  0.85379624  0.59175801     0.29000
F1907       F  0.78680453  0.81772050  0.58509028    -0.20400
H1908       H  0.70872932  0.82488647  0.59119536     0.17400
H1909       H  0.78809043  0.95664329  0.59906407     0.17400
F1910       F  0.70893144  0.96414268  0.60038201    -0.20400
C1911       C  0.57413815  0.90412927  0.77015525    -0.21800
C1912       C  0.61189625  0.90310755  0.79185055    -0.09900
C1913       C  0.64754354  0.90061936  0.76746195     0.29000
C1914       C  0.64524625  0.89719144  0.72308095    -0.21800
C1915       C  0.60750710  0.89639034  0.70131810    -0.09900
C1916       C  0.57182706  0.90067049  0.72546656     0.29000
F1917       F  0.53455883  0.89929240  0.70623102    -0.20400
H1918       H  0.54624880  0.90582243  0.78797678     0.17400
H1919       H  0.67338797  0.89525809  0.70564447     0.17400
F1920       F  0.68498067  0.90185499  0.78639820    -0.20400
C1921       C  0.73791755  0.92763843  0.86833145    -0.21800
C1922       C  0.71533724  0.89835380  0.89102700    -0.09900
C1923       C  0.73563161  0.86963676  0.91571294     0.29000
C1924       C  0.77826329  0.86937667  0.91645266    -0.21800
C1925       C  0.80080979  0.89832528  0.89331893    -0.09900
C1926       C  0.78055537  0.92763757  0.86940696     0.29000
F1927       F  0.80206940  0.95594288  0.84697134    -0.20400
H1928       H  0.72247886  0.95044592  0.84990311     0.17400
H1929       H  0.79373378  0.84669985  0.93504082     0.17400
F1930       F  0.71419075  0.84242473  0.93956428    -0.20400
C1931       C  0.64590848  0.60878039  0.77575526    -0.21800
C1932       C  0.60848234  0.60588008  0.79668619    -0.09900
C1933       C  0.57232377  0.59938339  0.77267017     0.29000
C1934       C  0.57365506  0.59755585  0.72845045    -0.21800
C1935       C  0.61100653  0.60191936  0.70752156    -0.09900
C1936       C  0.64731642  0.60670761  0.73164783     0.29000
F1937       F  0.68434307  0.60840046  0.71289117    -0.20400
H1938       H  0.67433799  0.61212085  0.79355581     0.17400
H1939       H  0.54530830  0.59390732  0.71053992     0.17400
F1940       F  0.53557894  0.59620476  0.79170288    -0.20400
C1941       C  0.72880352  0.64793812  0.90278164    -0.21800
C1942       C  0.70641924  0.61072897  0.90026606    -0.09900
C1943       C  0.72757656  0.57378870  0.89890010     0.29000
C1944       C  0.77041927  0.57459615  0.89876293    -0.21800
C1945       C  0.79259111  0.61216023  0.89957152    -0.09900
C1946       C  0.77136047  0.64883619  0.90217213     0.29000
F1947       F  0.79177642  0.68558173  0.90531575    -0.20400
H1948       H  0.71333767  0.67651261  0.90609311     0.17400
H1949       H  0.78627885  0.54597028  0.89692027     0.17400
F1950       F  0.70691870  0.53712949  0.89627274    -0.20400
C1951       C  0.64576332  0.73405819  0.88399205    -0.21800
C1952       C  0.61083378  0.71206748  0.89768843    -0.09900
C1953       C  0.57727926  0.73551079  0.91051412     0.29000
C1954       C  0.57912723  0.77880087  0.90921449    -0.21800
C1955       C  0.61429484  0.80043028  0.89537414    -0.09900
C1956       C  0.64787200  0.77700903  0.88330933     0.29000
F1957       F  0.68379501  0.79508342  0.87201453    -0.20400
H1958       H  0.67245710  0.71839220  0.87382870     0.17400
H1959       H  0.55240659  0.79535901  0.91833333     0.17400
F1960       F  0.54183719  0.71705505  0.92274909    -0.20400
loop_ 
_geom_bond_atom_site_label_1 
_geom_bond_atom_site_label_2 
_geom_bond_distance 
_geom_bond_site_symmetry_2 
_ccdc_geom_bond_type 
O1            C9   1.282       .  A
O1        Co1246   2.023       .  S
O2           C10   1.243       .  A
O2        Co1002   1.951       .  S
O3           C11   1.247       .  A
O3         Co513   1.932       .  S
O4           C12   1.274       .  A
O4         Co759   1.927       .  S
O5           C11   1.266       .  A
O5          Co22   2.000       .  S
O6           C12   1.291       .  A
O6         Co266   2.096       .  S
O7           C10   1.268       .  A
O7         Co269   2.033   1_545  S
O8            C9   1.264       .  A
O8          Co23   1.955       .  S
C9          C114   1.492       .  S
C10          C30   1.514       .  S
C11          C78   1.495       .  S
C12          C42   1.533       .  S
O13          C26   1.278       .  A
O13         Co21   1.934       .  S
O14          C27   1.247       .  A
O14        Co267   1.924       .  S
O15          C28   1.239       .  A
O15        Co268   1.947   1_554  S
O16          C29   1.277       .  A
O16         Co24   2.019   1_544  S
O17          C29   1.259       .  A
O17       Co1247   1.952       .  S
O18          C28   1.271       .  A
O18       Co1001   2.046       .  S
O19          C26   1.290       .  A
O19        Co514   2.085   1_554  S
O20          C27   1.267       .  A
O20        Co758   1.998   1_554  S
Co21       O1226   2.023   1_454  S
Co21        O251   2.096   1_554  S
Co21        O998   2.046   1_455  S
Co21        O270   2.055   1_455  S
Co22        O982   1.951       .  S
Co22        O259   1.924       .  S
Co22       O1242   1.952       .  S
Co22       O1495   2.071       .  S
Co23        O493   1.932       .  S
Co23        O260   1.947       .  S
Co23        O755   1.998       .  S
Co23       O1005   2.066       .  S
Co24        O739   1.927       .  S
Co24        O252   2.033   1_565  S
Co24        O509   2.085   1_556  S
Co24        O760   2.046   1_466  S
O25        Co266   2.055   1_655  S
O25       Co1492   2.071   1_655  S
O25       Co1003   2.066       .  S
O25        Co759   2.047   1_655  S
C26          C54   1.531       .  S
C27          C90   1.492       .  S
C28         C102   1.521       .  S
C29          C66   1.491       .  S
C30          C31   1.533       .  S
C30          C36   1.523       .  S
C30          C34   1.562       .  S
C31          H38   1.086       .  S
C31          C32   1.364       .  D
C32          C33   1.542       .  S
C32         C227   1.484       .  S
C33          C37   1.545       .  S
C33          C35   1.546       .  S
C33          H39   1.106       .  S
C34          H40   1.083       .  S
C34          C35   1.375       .  D
C35         C237   1.524       .  S
C36          H41   1.085       .  S
C36          C37   1.366       .  D
C37         C217   1.478       .  S
C42          C43   1.550       .  S
C42          C48   1.552       .  S
C42          C46   1.535       .  S
C43          H50   1.085       .  S
C43          C44   1.377       .  D
C44          C45   1.548       .  S
C44         C240   1.516       .  S
C45          C49   1.544       .  S
C45          C47   1.533       .  S
C45          H51   1.106       .  S
C46          H52   1.086       .  S
C46          C47   1.356       .  D
C47         C207   1.468       .  S
C48          H53   1.086       .  S
C48          C49   1.378       .  D
C49         C197   1.506       .  S
C54          C55   1.551       .  S
C54          C60   1.548       .  S
C54          C58   1.533       .  S
C55          H62   1.086       .  S
C55          C56   1.372       .  D
C56          C57   1.541       .  S
C56         C187   1.500       .  S
C57          C61   1.549       .  S
C57          C59   1.541       .  S
C57          H63   1.110       .  S
C58          H64   1.086       .  S
C58          C59   1.363       .  D
C59         C180   1.484       .  S
C60          H65   1.085       .  S
C60          C61   1.377       .  D
C61         C200   1.507       .  S
C66          C67   1.541       .  S
C66          C72   1.536       .  S
C66          C70   1.527       .  S
C67          H74   1.086       .  S
C67          C68   1.364       .  D
C68          C69   1.532       .  S
C68         C177   1.484       .  S
C69          C73   1.537       .  S
C69          C71   1.527       .  S
C69          H75   1.110       .  S
C70          H76   1.086       .  S
C70          C71   1.357       .  D
C71         C167   1.446       .  S
C72          H77   1.086       .  S
C72          C73   1.369       .  D
C73         C220   1.478       .  S
C78          C79   1.525       .  S
C78          C84   1.525       .  S
C78          C82   1.558       .  S
C79          H86   1.086       .  S
C79          C80   1.365       .  D
C80          C81   1.534       .  S
C80         C157   1.463       .  S
C81          C85   1.533       .  S
C81          C83   1.529       .  S
C81          H87   1.111       .  S
C82          H88   1.086       .  S
C82          C83   1.360       .  D
C83         C230   1.483       .  S
C84          H89   1.087       .  S
C84          C85   1.362       .  D
C85         C150   1.460       .  S
C90          C91   1.520       .  S
C90          C96   1.529       .  S
C90          C94   1.559       .  S
C91          H98   1.087       .  S
C91          C92   1.353       .  D
C92          C93   1.530       .  S
C92         C170   1.446       .  S
C93          C97   1.534       .  S
C93          C95   1.539       .  S
C93          H99   1.107       .  S
C94         H100   1.085       .  S
C94          C95   1.366       .  D
C95         C137   1.503       .  S
C96         H101   1.086       .  S
C96          C97   1.364       .  D
C97         C147   1.463       .  S
C102        C103   1.539       .  S
C102        C108   1.521       .  S
C102        C106   1.561       .  S
C103        H110   1.083       .  S
C103        C104   1.377       .  D
C104        C105   1.550       .  S
C104        C140   1.510       .  S
C105        C109   1.543       .  S
C105        C107   1.539       .  S
C105        H111   1.104       .  S
C106        H112   1.086       .  S
C106        C107   1.365       .  D
C107        C190   1.505       .  S
C108        H113   1.086       .  S
C108        C109   1.365       .  D
C109        C130   1.475       .  S
C114        C115   1.542       .  S
C114        C120   1.532       .  S
C114        C118   1.527       .  S
C115        H122   1.087       .  S
C115        C116   1.361       .  D
C116        C117   1.526       .  S
C116        C210   1.467       .  S
C117        C121   1.537       .  S
C117        C119   1.532       .  S
C117        H123   1.110       .  S
C118        H124   1.086       .  S
C118        C119   1.361       .  D
C119        C160   1.463       .  S
C120        H125   1.085       .  S
C120        C121   1.369       .  D
C121        C127   1.476       .  S
C126        C127   1.404       .  A
C126        C131   1.393       .  A
C126        H133   1.083       .  S
C127        C128   1.405       .  A
C128        C129   1.393       .  A
C128        F135   1.356       .  S
C129        C130   1.403       .  A
C129        H134   1.082       .  S
C130        C131   1.405       .  A
C131        F132   1.358       .  S
C136        C137   1.410       .  A
C136        C141   1.405       .  A
C136        H143   1.082       .  S
C137        C138   1.407       .  A
C138        C139   1.395       .  A
C138        F145   1.355       .  S
C139        C140   1.408       .  A
C139        H144   1.074       .  S
C140        C141   1.414       .  A
C141        F142   1.356       .  S
C146        C147   1.401       .  A
C146        C151   1.395       .  A
C146        H153   1.084       .  S
C147        C148   1.403       .  A
C148        C149   1.390       .  A
C148        F155   1.356       .  S
C149        C150   1.397       .  A
C149        H154   1.084       .  S
C150        C151   1.402       .  A
C151        F152   1.356       .  S
C156        C157   1.402       .  A
C156        C161   1.392       .  A
C156        H163   1.083       .  S
C157        C158   1.403       .  A
C158        C159   1.389       .  A
C158        F165   1.358       .  S
C159        C160   1.402       .  A
C159        H164   1.084       .  S
C160        C161   1.402       .  A
C161        F162   1.358       .  S
C166        C167   1.397       .  A
C166        C171   1.388       .  A
C166        H173   1.084       .  S
C167        C168   1.400       .  A
C168        C169   1.388       .  A
C168        F175   1.357       .  S
C169        C170   1.398       .  A
C169        H174   1.083       .  S
C170        C171   1.399       .  A
C171        F172   1.358       .  S
C176        C177   1.405       .  A
C176        C181   1.399       .  A
C176        H183   1.083       .  S
C177        C178   1.407       .  A
C178        C179   1.398       .  A
C178        F185   1.358       .  S
C179        C180   1.406       .  A
C179        H184   1.083       .  S
C180        C181   1.405       .  A
C181        F182   1.357       .  S
C186        C187   1.404       .  A
C186        C191   1.403       .  A
C186        H193   1.084       .  S
C187        C188   1.410       .  A
C188        C189   1.412       .  A
C188        F195   1.357       .  S
C189        C190   1.410       .  A
C189        H194   1.083       .  S
C190        C191   1.407       .  A
C191        F192   1.352       .  S
C196        C197   1.407       .  A
C196        C201   1.412       .  A
C196        H203   1.082       .  S
C197        C198   1.411       .  A
C198        C199   1.403       .  A
C198        F205   1.356       .  S
C199        C200   1.406       .  A
C199        H204   1.083       .  S
C200        C201   1.413       .  A
C201        F202   1.356       .  S
C206        C207   1.401       .  A
C206        C211   1.397       .  A
C206        H213   1.083       .  S
C207        C208   1.403       .  A
C208        C209   1.397       .  A
C208        F215   1.357       .  S
C209        C210   1.401       .  A
C209        H214   1.084       .  S
C210        C211   1.403       .  A
C211        F212   1.357       .  S
C216        C217   1.402       .  A
C216        C221   1.392       .  A
C216        H223   1.083       .  S
C217        C218   1.407       .  A
C218        C219   1.396       .  A
C218        F225   1.354       .  S
C219        C220   1.403       .  A
C219        H224   1.083       .  S
C220        C221   1.407       .  A
C221        F222   1.357       .  S
C226        C227   1.400       .  A
C226        C231   1.394       .  A
C226        H233   1.079       .  S
C227        C228   1.409       .  A
C228        C229   1.404       .  A
C228        F235   1.358       .  S
C229        C230   1.406       .  A
C229        H234   1.084       .  S
C230        C231   1.404       .  A
C231        F232   1.357       .  S
C236        C237   1.409       .  A
C236        C241   1.401       .  A
C236        H243   1.076       .  S
C237        C238   1.418       .  A
C238        C239   1.413       .  A
C238        F245   1.355       .  S
C239        C240   1.411       .  A
C239        H244   1.083       .  S
C240        C241   1.412       .  A
C241        F242   1.355       .  S
O246        C254   1.282       .  A
O246      Co1001   2.023   1_556  S
O247        C255   1.243       .  A
O247      Co1247   1.951   1_556  S
O248        C256   1.247       .  A
O248       Co758   1.932       .  S
O249        C257   1.274       .  A
O249       Co514   1.927       .  S
O250        C256   1.266       .  A
O250       Co267   2.000   1_556  S
O251        C257   1.291       .  A
O252        C255   1.268       .  A
O253        C254   1.264       .  A
O253       Co268   1.955       .  S
C254        C359   1.492       .  S
C255        C275   1.514       .  S
C256        C323   1.495       .  S
C257        C287   1.533       .  S
O258        C271   1.278       .  A
O258       Co266   1.934       .  S
O259        C272   1.247       .  A
O260        C273   1.239       .  A
O261        C274   1.277       .  A
O261       Co269   2.019   1_545  S
O262        C274   1.259       .  A
O262      Co1002   1.952       .  S
O263        C273   1.271       .  A
O263      Co1246   2.046       .  S
O264        C271   1.290       .  A
O264       Co759   2.085       .  S
O265        C272   1.267       .  A
O265       Co513   1.998       .  S
Co266       O981   2.023   1_455  S
Co266      O1243   2.046   1_455  S
Co267      O1227   1.951   1_554  S
Co267       O997   1.952       .  S
Co267      O1740   2.071       .  S
Co268       O738   1.932       .  S
Co268       O510   1.998   1_556  S
Co268      O1250   2.066   1_556  S
Co269       O494   1.927       .  S
Co269       O754   2.085       .  S
Co269       O515   2.047   1_465  S
O270      Co1737   2.071   1_655  S
O270      Co1248   2.066   1_554  S
O270       Co514   2.047   1_654  S
C271        C299   1.531       .  S
C272        C335   1.492       .  S
C273        C347   1.521       .  S
C274        C311   1.491       .  S
C275        C276   1.533       .  S
C275        C281   1.523       .  S
C275        C279   1.562       .  S
C276        H283   1.086       .  S
C276        C277   1.364       .  D
C277        C278   1.542       .  S
C277        C472   1.484       .  S
C278        C282   1.545       .  S
C278        C280   1.546       .  S
C278        H284   1.106       .  S
C279        H285   1.083       .  S
C279        C280   1.375       .  D
C280        C482   1.524       .  S
C281        H286   1.085       .  S
C281        C282   1.366       .  D
C282        C462   1.478       .  S
C287        C288   1.550       .  S
C287        C293   1.552       .  S
C287        C291   1.535       .  S
C288        H295   1.085       .  S
C288        C289   1.377       .  D
C289        C290   1.548       .  S
C289        C485   1.516       .  S
C290        C294   1.544       .  S
C290        C292   1.533       .  S
C290        H296   1.106       .  S
C291        H297   1.086       .  S
C291        C292   1.356       .  D
C292        C452   1.468       .  S
C293        H298   1.086       .  S
C293        C294   1.378       .  D
C294        C442   1.506       .  S
C299        C300   1.551       .  S
C299        C305   1.548       .  S
C299        C303   1.533       .  S
C300        H307   1.086       .  S
C300        C301   1.372       .  D
C301        C302   1.541       .  S
C301        C432   1.500       .  S
C302        C306   1.549       .  S
C302        C304   1.541       .  S
C302        H308   1.110       .  S
C303        H309   1.086       .  S
C303        C304   1.363       .  D
C304        C425   1.484       .  S
C305        H310   1.085       .  S
C305        C306   1.377       .  D
C306        C445   1.507       .  S
C311        C312   1.541       .  S
C311        C317   1.536       .  S
C311        C315   1.527       .  S
C312        H319   1.086       .  S
C312        C313   1.364       .  D
C313        C314   1.532       .  S
C313        C422   1.484       .  S
C314        C318   1.537       .  S
C314        C316   1.527       .  S
C314        H320   1.110       .  S
C315        H321   1.086       .  S
C315        C316   1.357       .  D
C316        C412   1.446       .  S
C317        H322   1.086       .  S
C317        C318   1.369       .  D
C318        C465   1.478       .  S
C323        C324   1.525       .  S
C323        C329   1.525       .  S
C323        C327   1.558       .  S
C324        H331   1.086       .  S
C324        C325   1.365       .  D
C325        C326   1.534       .  S
C325        C402   1.463       .  S
C326        C330   1.533       .  S
C326        C328   1.529       .  S
C326        H332   1.111       .  S
C327        H333   1.086       .  S
C327        C328   1.360       .  D
C328        C475   1.483       .  S
C329        H334   1.087       .  S
C329        C330   1.362       .  D
C330        C395   1.460       .  S
C335        C336   1.520       .  S
C335        C341   1.529       .  S
C335        C339   1.559       .  S
C336        H343   1.087       .  S
C336        C337   1.353       .  D
C337        C338   1.530       .  S
C337        C415   1.446       .  S
C338        C342   1.534       .  S
C338        C340   1.539       .  S
C338        H344   1.107       .  S
C339        H345   1.085       .  S
C339        C340   1.366       .  D
C340        C382   1.503       .  S
C341        H346   1.086       .  S
C341        C342   1.364       .  D
C342        C392   1.463       .  S
C347        C348   1.539       .  S
C347        C353   1.521       .  S
C347        C351   1.561       .  S
C348        H355   1.083       .  S
C348        C349   1.377       .  D
C349        C350   1.551       .  S
C349        C385   1.510       .  S
C350        C354   1.543       .  S
C350        C352   1.539       .  S
C350        H356   1.104       .  S
C351        H357   1.086       .  S
C351        C352   1.365       .  D
C352        C435   1.505       .  S
C353        H358   1.086       .  S
C353        C354   1.365       .  D
C354        C375   1.475       .  S
C359        C360   1.542       .  S
C359        C365   1.532       .  S
C359        C363   1.527       .  S
C360        H367   1.087       .  S
C360        C361   1.361       .  D
C361        C362   1.526       .  S
C361        C455   1.467       .  S
C362        C366   1.537       .  S
C362        C364   1.532       .  S
C362        H368   1.110       .  S
C363        H369   1.086       .  S
C363        C364   1.361       .  D
C364        C405   1.463       .  S
C365        H370   1.085       .  S
C365        C366   1.369       .  D
C366        C372   1.476       .  S
C371        C372   1.404       .  A
C371        C376   1.393       .  A
C371        H378   1.083       .  S
C372        C373   1.405       .  A
C373        C374   1.393       .  A
C373        F380   1.356       .  S
C374        C375   1.403       .  A
C374        H379   1.082       .  S
C375        C376   1.405       .  A
C376        F377   1.358       .  S
C381        C382   1.410       .  A
C381        C386   1.405       .  A
C381        H388   1.082       .  S
C382        C383   1.407       .  A
C383        C384   1.395       .  A
C383        F390   1.355       .  S
C384        C385   1.408       .  A
C384        H389   1.074       .  S
C385        C386   1.414       .  A
C386        F387   1.356       .  S
C391        C392   1.401       .  A
C391        C396   1.395       .  A
C391        H398   1.084       .  S
C392        C393   1.403       .  A
C393        C394   1.390       .  A
C393        F400   1.356       .  S
C394        C395   1.397       .  A
C394        H399   1.084       .  S
C395        C396   1.402       .  A
C396        F397   1.356       .  S
C401        C402   1.402       .  A
C401        C406   1.392       .  A
C401        H408   1.083       .  S
C402        C403   1.403       .  A
C403        C404   1.389       .  A
C403        F410   1.358       .  S
C404        C405   1.402       .  A
C404        H409   1.084       .  S
C405        C406   1.402       .  A
C406        F407   1.358       .  S
C411        C412   1.397       .  A
C411        C416   1.388       .  A
C411        H418   1.084       .  S
C412        C413   1.400       .  A
C413        C414   1.388       .  A
C413        F420   1.357       .  S
C414        C415   1.398       .  A
C414        H419   1.083       .  S
C415        C416   1.399       .  A
C416        F417   1.358       .  S
C421        C422   1.405       .  A
C421        C426   1.399       .  A
C421        H428   1.083       .  S
C422        C423   1.407       .  A
C423        C424   1.398       .  A
C423        F430   1.358       .  S
C424        C425   1.406       .  A
C424        H429   1.083       .  S
C425        C426   1.405       .  A
C426        F427   1.357       .  S
C431        C432   1.404       .  A
C431        C436   1.403       .  A
C431        H438   1.084       .  S
C432        C433   1.410       .  A
C433        C434   1.412       .  A
C433        F440   1.357       .  S
C434        C435   1.410       .  A
C434        H439   1.083       .  S
C435        C436   1.407       .  A
C436        F437   1.352       .  S
C441        C442   1.407       .  A
C441        C446   1.412       .  A
C441        H448   1.082       .  S
C442        C443   1.411       .  A
C443        C444   1.403       .  A
C443        F450   1.356       .  S
C444        C445   1.406       .  A
C444        H449   1.083       .  S
C445        C446   1.413       .  A
C446        F447   1.356       .  S
C451        C452   1.401       .  A
C451        C456   1.397       .  A
C451        H458   1.083       .  S
C452        C453   1.403       .  A
C453        C454   1.397       .  A
C453        F460   1.357       .  S
C454        C455   1.401       .  A
C454        H459   1.084       .  S
C455        C456   1.403       .  A
C456        F457   1.357       .  S
C461        C462   1.402       .  A
C461        C466   1.392       .  A
C461        H468   1.083       .  S
C462        C463   1.407       .  A
C463        C464   1.396       .  A
C463        F470   1.354       .  S
C464        C465   1.403       .  A
C464        H469   1.083       .  S
C465        C466   1.407       .  A
C466        F467   1.357       .  S
C471        C472   1.400       .  A
C471        C476   1.394       .  A
C471        H478   1.079       .  S
C472        C473   1.409       .  A
C473        C474   1.404       .  A
C473        F480   1.358       .  S
C474        C475   1.406       .  A
C474        H479   1.084       .  S
C475        C476   1.404       .  A
C476        F477   1.357       .  S
C481        C482   1.409       .  A
C481        C486   1.401       .  A
C481        H488   1.076       .  S
C482        C483   1.418       .  A
C483        C484   1.413       .  A
C483        F490   1.355       .  S
C484        C485   1.411       .  A
C484        H489   1.083       .  S
C485        C486   1.412       .  A
C486        F487   1.355       .  S
O491        C499   1.282       .  A
O491      Co1736   2.023       .  S
O492        C500   1.243       .  A
O492      Co1492   1.951       .  S
O493        C501   1.247       .  A
O494        C502   1.274       .  A
O495        C501   1.266       .  A
O495       Co512   2.000       .  S
O496        C502   1.291       .  A
O496       Co756   2.096       .  S
O497        C500   1.268       .  A
O497       Co759   2.033       .  S
O498        C499   1.264       .  A
O498       Co513   1.955   1_565  S
C499        C604   1.492       .  S
C500        C520   1.514       .  S
C501        C568   1.495       .  S
C502        C532   1.533       .  S
O503        C516   1.278       .  A
O503       Co511   1.934       .  S
O504        C517   1.247       .  A
O504       Co757   1.924       .  S
O505        C518   1.239       .  A
O505       Co758   1.947   1_564  S
O506        C519   1.277       .  A
O506       Co514   2.019   1_554  S
O507        C519   1.259       .  A
O507      Co1737   1.952       .  S
O508        C518   1.271       .  A
O508      Co1491   2.046       .  S
O509        C516   1.290       .  A
O510        C517   1.267       .  A
Co511      O1716   2.023   1_454  S
Co511       O741   2.096   1_554  S
Co511      O1488   2.046   1_455  S
Co511       O760   2.055   1_465  S
Co512      O1472   1.951       .  S
Co512       O749   1.924       .  S
Co512      O1732   1.952       .  S
Co512      O1005   2.071       .  S
Co513       O750   1.947   1_545  S
Co513      O1495   2.066       .  S
Co514       O742   2.033       .  S
O515       Co756   2.055   1_645  S
O515      Co1002   2.071   1_655  S
O515      Co1493   2.066       .  S
C516        C544   1.531       .  S
C517        C580   1.492       .  S
C518        C592   1.521       .  S
C519        C556   1.491       .  S
C520        C521   1.533       .  S
C520        C526   1.523       .  S
C520        C524   1.562       .  S
C521        H528   1.086       .  S
C521        C522   1.364       .  D
C522        C523   1.542       .  S
C522        C717   1.484       .  S
C523        C527   1.545       .  S
C523        C525   1.546       .  S
C523        H529   1.106       .  S
C524        H530   1.083       .  S
C524        C525   1.375       .  D
C525        C727   1.524       .  S
C526        H531   1.085       .  S
C526        C527   1.366       .  D
C527        C707   1.478       .  S
C532        C533   1.550       .  S
C532        C538   1.552       .  S
C532        C536   1.535       .  S
C533        H540   1.085       .  S
C533        C534   1.377       .  D
C534        C535   1.548       .  S
C534        C730   1.516       .  S
C535        C539   1.544       .  S
C535        C537   1.533       .  S
C535        H541   1.106       .  S
C536        H542   1.086       .  S
C536        C537   1.356       .  D
C537        C697   1.468       .  S
C538        H543   1.086       .  S
C538        C539   1.378       .  D
C539        C687   1.506       .  S
C544        C545   1.551       .  S
C544        C550   1.548       .  S
C544        C548   1.533       .  S
C545        H552   1.086       .  S
C545        C546   1.372       .  D
C546        C547   1.541       .  S
C546        C677   1.500       .  S
C547        C551   1.549       .  S
C547        C549   1.541       .  S
C547        H553   1.110       .  S
C548        H554   1.086       .  S
C548        C549   1.363       .  D
C549        C670   1.484       .  S
C550        H555   1.085       .  S
C550        C551   1.377       .  D
C551        C690   1.507       .  S
C556        C557   1.541       .  S
C556        C562   1.536       .  S
C556        C560   1.527       .  S
C557        H564   1.086       .  S
C557        C558   1.364       .  D
C558        C559   1.532       .  S
C558        C667   1.484       .  S
C559        C563   1.537       .  S
C559        C561   1.527       .  S
C559        H565   1.110       .  S
C560        H566   1.086       .  S
C560        C561   1.357       .  D
C561        C657   1.446       .  S
C562        H567   1.086       .  S
C562        C563   1.369       .  D
C563        C710   1.478       .  S
C568        C569   1.525       .  S
C568        C574   1.525       .  S
C568        C572   1.558       .  S
C569        H576   1.086       .  S
C569        C570   1.365       .  D
C570        C571   1.534       .  S
C570        C647   1.463       .  S
C571        C575   1.533       .  S
C571        C573   1.529       .  S
C571        H577   1.111       .  S
C572        H578   1.086       .  S
C572        C573   1.360       .  D
C573        C720   1.483       .  S
C574        H579   1.087       .  S
C574        C575   1.362       .  D
C575        C640   1.460       .  S
C580        C581   1.520       .  S
C580        C586   1.529       .  S
C580        C584   1.559       .  S
C581        H588   1.087       .  S
C581        C582   1.353       .  D
C582        C583   1.530       .  S
C582        C660   1.446       .  S
C583        C587   1.534       .  S
C583        C585   1.539       .  S
C583        H589   1.107       .  S
C584        H590   1.085       .  S
C584        C585   1.366       .  D
C585        C627   1.503       .  S
C586        H591   1.086       .  S
C586        C587   1.364       .  D
C587        C637   1.463       .  S
C592        C593   1.539       .  S
C592        C598   1.521       .  S
C592        C596   1.561       .  S
C593        H600   1.083       .  S
C593        C594   1.377       .  D
C594        C595   1.551       .  S
C594        C630   1.510       .  S
C595        C599   1.543       .  S
C595        C597   1.539       .  S
C595        H601   1.104       .  S
C596        H602   1.086       .  S
C596        C597   1.365       .  D
C597        C680   1.505       .  S
C598        H603   1.086       .  S
C598        C599   1.365       .  D
C599        C620   1.475       .  S
C604        C605   1.542       .  S
C604        C610   1.532       .  S
C604        C608   1.527       .  S
C605        H612   1.087       .  S
C605        C606   1.361       .  D
C606        C607   1.526       .  S
C606        C700   1.467       .  S
C607        C611   1.537       .  S
C607        C609   1.532       .  S
C607        H613   1.110       .  S
C608        H614   1.086       .  S
C608        C609   1.361       .  D
C609        C650   1.463       .  S
C610        H615   1.085       .  S
C610        C611   1.369       .  D
C611        C617   1.476       .  S
C616        C617   1.404       .  A
C616        C621   1.393       .  A
C616        H623   1.083       .  S
C617        C618   1.405       .  A
C618        C619   1.393       .  A
C618        F625   1.356       .  S
C619        C620   1.403       .  A
C619        H624   1.082       .  S
C620        C621   1.405       .  A
C621        F622   1.358       .  S
C626        C627   1.410       .  A
C626        C631   1.405       .  A
C626        H633   1.082       .  S
C627        C628   1.407       .  A
C628        C629   1.395       .  A
C628        F635   1.355       .  S
C629        C630   1.408       .  A
C629        H634   1.074       .  S
C630        C631   1.414       .  A
C631        F632   1.356       .  S
C636        C637   1.401       .  A
C636        C641   1.395       .  A
C636        H643   1.084       .  S
C637        C638   1.403       .  A
C638        C639   1.390       .  A
C638        F645   1.356       .  S
C639        C640   1.397       .  A
C639        H644   1.084       .  S
C640        C641   1.402       .  A
C641        F642   1.356       .  S
C646        C647   1.402       .  A
C646        C651   1.392       .  A
C646        H653   1.083       .  S
C647        C648   1.403       .  A
C648        C649   1.389       .  A
C648        F655   1.358       .  S
C649        C650   1.402       .  A
C649        H654   1.084       .  S
C650        C651   1.402       .  A
C651        F652   1.358       .  S
C656        C657   1.397       .  A
C656        C661   1.388       .  A
C656        H663   1.084       .  S
C657        C658   1.400       .  A
C658        C659   1.388       .  A
C658        F665   1.357       .  S
C659        C660   1.398       .  A
C659        H664   1.083       .  S
C660        C661   1.399       .  A
C661        F662   1.358       .  S
C666        C667   1.405       .  A
C666        C671   1.399       .  A
C666        H673   1.083       .  S
C667        C668   1.407       .  A
C668        C669   1.398       .  A
C668        F675   1.358       .  S
C669        C670   1.406       .  A
C669        H674   1.083       .  S
C670        C671   1.405       .  A
C671        F672   1.357       .  S
C676        C677   1.404       .  A
C676        C681   1.403       .  A
C676        H683   1.084       .  S
C677        C678   1.410       .  A
C678        C679   1.412       .  A
C678        F685   1.357       .  S
C679        C680   1.410       .  A
C679        H684   1.083       .  S
C680        C681   1.407       .  A
C681        F682   1.352       .  S
C686        C687   1.407       .  A
C686        C691   1.412       .  A
C686        H693   1.082       .  S
C687        C688   1.411       .  A
C688        C689   1.403       .  A
C688        F695   1.356       .  S
C689        C690   1.406       .  A
C689        H694   1.083       .  S
C690        C691   1.413       .  A
C691        F692   1.356       .  S
C696        C697   1.401       .  A
C696        C701   1.397       .  A
C696        H703   1.083       .  S
C697        C698   1.403       .  A
C698        C699   1.397       .  A
C698        F705   1.357       .  S
C699        C700   1.401       .  A
C699        H704   1.084       .  S
C700        C701   1.403       .  A
C701        F702   1.357       .  S
C706        C707   1.402       .  A
C706        C711   1.392       .  A
C706        H713   1.083       .  S
C707        C708   1.407       .  A
C708        C709   1.396       .  A
C708        F715   1.354       .  S
C709        C710   1.403       .  A
C709        H714   1.083       .  S
C710        C711   1.407       .  A
C711        F712   1.357       .  S
C716        C717   1.400       .  A
C716        C721   1.394       .  A
C716        H723   1.079       .  S
C717        C718   1.409       .  A
C718        C719   1.404       .  A
C718        F725   1.358       .  S
C719        C720   1.406       .  A
C719        H724   1.084       .  S
C720        C721   1.404       .  A
C721        F722   1.357       .  S
C726        C727   1.409       .  A
C726        C731   1.401       .  A
C726        H733   1.076       .  S
C727        C728   1.418       .  A
C728        C729   1.413       .  A
C728        F735   1.355       .  S
C729        C730   1.411       .  A
C729        H734   1.083       .  S
C730        C731   1.412       .  A
C731        F732   1.355       .  S
O736        C744   1.282       .  A
O736      Co1491   2.023   1_556  S
O737        C745   1.243       .  A
O737      Co1737   1.951   1_556  S
O738        C746   1.247       .  A
O739        C747   1.274       .  A
O740        C746   1.266       .  A
O740       Co757   2.000   1_556  S
O741        C747   1.291       .  A
O742        C745   1.268       .  A
O743        C744   1.264       .  A
O743       Co758   1.955   1_565  S
C744        C849   1.492       .  S
C745        C765   1.514       .  S
C746        C813   1.495       .  S
C747        C777   1.533       .  S
O748        C761   1.278       .  A
O748       Co756   1.934       .  S
O749        C762   1.247       .  A
O750        C763   1.239       .  A
O751        C764   1.277       .  A
O751       Co759   2.019       .  S
O752        C764   1.259       .  A
O752      Co1492   1.952       .  S
O753        C763   1.271       .  A
O753      Co1736   2.046       .  S
O754        C761   1.290       .  A
O755        C762   1.267       .  A
Co756      O1471   2.023   1_455  S
Co756      O1733   2.046   1_455  S
Co757      O1717   1.951   1_554  S
Co757      O1487   1.952       .  S
Co757      O1250   2.071       .  S
Co758      O1740   2.066   1_556  S
O760      Co1247   2.071   1_655  S
O760      Co1738   2.066   1_554  S
C761        C789   1.531       .  S
C762        C825   1.492       .  S
C763        C837   1.521       .  S
C764        C801   1.491       .  S
C765        C766   1.533       .  S
C765        C771   1.523       .  S
C765        C769   1.562       .  S
C766        H773   1.086       .  S
C766        C767   1.364       .  D
C767        C768   1.542       .  S
C767        C962   1.484       .  S
C768        C772   1.545       .  S
C768        C770   1.546       .  S
C768        H774   1.106       .  S
C769        H775   1.083       .  S
C769        C770   1.375       .  D
C770        C972   1.524       .  S
C771        H776   1.085       .  S
C771        C772   1.366       .  D
C772        C952   1.478       .  S
C777        C778   1.550       .  S
C777        C783   1.552       .  S
C777        C781   1.535       .  S
C778        H785   1.085       .  S
C778        C779   1.377       .  D
C779        C780   1.548       .  S
C779        C975   1.516       .  S
C780        C784   1.544       .  S
C780        C782   1.533       .  S
C780        H786   1.106       .  S
C781        H787   1.086       .  S
C781        C782   1.356       .  D
C782        C942   1.468       .  S
C783        H788   1.086       .  S
C783        C784   1.378       .  D
C784        C932   1.506       .  S
C789        C790   1.551       .  S
C789        C795   1.548       .  S
C789        C793   1.533       .  S
C790        H797   1.086       .  S
C790        C791   1.372       .  D
C791        C792   1.541       .  S
C791        C922   1.500       .  S
C792        C796   1.549       .  S
C792        C794   1.541       .  S
C792        H798   1.110       .  S
C793        H799   1.086       .  S
C793        C794   1.363       .  D
C794        C915   1.484       .  S
C795        H800   1.085       .  S
C795        C796   1.377       .  D
C796        C935   1.507       .  S
C801        C802   1.541       .  S
C801        C807   1.536       .  S
C801        C805   1.527       .  S
C802        H809   1.086       .  S
C802        C803   1.364       .  D
C803        C804   1.532       .  S
C803        C912   1.484       .  S
C804        C808   1.537       .  S
C804        C806   1.527       .  S
C804        H810   1.110       .  S
C805        H811   1.086       .  S
C805        C806   1.357       .  D
C806        C902   1.446       .  S
C807        H812   1.086       .  S
C807        C808   1.369       .  D
C808        C955   1.478       .  S
C813        C814   1.525       .  S
C813        C819   1.525       .  S
C813        C817   1.558       .  S
C814        H821   1.086       .  S
C814        C815   1.365       .  D
C815        C816   1.534       .  S
C815        C892   1.463       .  S
C816        C820   1.533       .  S
C816        C818   1.529       .  S
C816        H822   1.111       .  S
C817        H823   1.086       .  S
C817        C818   1.360       .  D
C818        C965   1.483       .  S
C819        H824   1.087       .  S
C819        C820   1.362       .  D
C820        C885   1.460       .  S
C825        C826   1.520       .  S
C825        C831   1.529       .  S
C825        C829   1.559       .  S
C826        H833   1.087       .  S
C826        C827   1.353       .  D
C827        C828   1.530       .  S
C827        C905   1.446       .  S
C828        C832   1.534       .  S
C828        C830   1.539       .  S
C828        H834   1.107       .  S
C829        H835   1.085       .  S
C829        C830   1.366       .  D
C830        C872   1.503       .  S
C831        H836   1.086       .  S
C831        C832   1.364       .  D
C832        C882   1.463       .  S
C837        C838   1.539       .  S
C837        C843   1.521       .  S
C837        C841   1.561       .  S
C838        H845   1.083       .  S
C838        C839   1.377       .  D
C839        C840   1.550       .  S
C839        C875   1.510       .  S
C840        C844   1.543       .  S
C840        C842   1.539       .  S
C840        H846   1.104       .  S
C841        H847   1.086       .  S
C841        C842   1.365       .  D
C842        C925   1.505       .  S
C843        H848   1.086       .  S
C843        C844   1.365       .  D
C844        C865   1.475       .  S
C849        C850   1.542       .  S
C849        C855   1.532       .  S
C849        C853   1.527       .  S
C850        H857   1.087       .  S
C850        C851   1.361       .  D
C851        C852   1.526       .  S
C851        C945   1.467       .  S
C852        C856   1.537       .  S
C852        C854   1.532       .  S
C852        H858   1.110       .  S
C853        H859   1.086       .  S
C853        C854   1.361       .  D
C854        C895   1.463       .  S
C855        H860   1.085       .  S
C855        C856   1.369       .  D
C856        C862   1.476       .  S
C861        C862   1.404       .  A
C861        C866   1.393       .  A
C861        H868   1.083       .  S
C862        C863   1.405       .  A
C863        C864   1.393       .  A
C863        F870   1.356       .  S
C864        C865   1.403       .  A
C864        H869   1.082       .  S
C865        C866   1.405       .  A
C866        F867   1.358       .  S
C871        C872   1.410       .  A
C871        C876   1.405       .  A
C871        H878   1.082       .  S
C872        C873   1.407       .  A
C873        C874   1.395       .  A
C873        F880   1.355       .  S
C874        C875   1.408       .  A
C874        H879   1.074       .  S
C875        C876   1.414       .  A
C876        F877   1.356       .  S
C881        C882   1.401       .  A
C881        C886   1.395       .  A
C881        H888   1.084       .  S
C882        C883   1.403       .  A
C883        C884   1.390       .  A
C883        F890   1.356       .  S
C884        C885   1.397       .  A
C884        H889   1.084       .  S
C885        C886   1.402       .  A
C886        F887   1.356       .  S
C891        C892   1.402       .  A
C891        C896   1.392       .  A
C891        H898   1.083       .  S
C892        C893   1.403       .  A
C893        C894   1.389       .  A
C893        F900   1.358       .  S
C894        C895   1.402       .  A
C894        H899   1.084       .  S
C895        C896   1.402       .  A
C896        F897   1.358       .  S
C901        C902   1.397       .  A
C901        C906   1.388       .  A
C901        H908   1.084       .  S
C902        C903   1.400       .  A
C903        C904   1.388       .  A
C903        F910   1.357       .  S
C904        C905   1.398       .  A
C904        H909   1.083       .  S
C905        C906   1.399       .  A
C906        F907   1.358       .  S
C911        C912   1.405       .  A
C911        C916   1.399       .  A
C911        H918   1.083       .  S
C912        C913   1.407       .  A
C913        C914   1.398       .  A
C913        F920   1.358       .  S
C914        C915   1.406       .  A
C914        H919   1.083       .  S
C915        C916   1.405       .  A
C916        F917   1.357       .  S
C921        C922   1.404       .  A
C921        C926   1.403       .  A
C921        H928   1.084       .  S
C922        C923   1.410       .  A
C923        C924   1.412       .  A
C923        F930   1.357       .  S
C924        C925   1.410       .  A
C924        H929   1.083       .  S
C925        C926   1.407       .  A
C926        F927   1.352       .  S
C931        C932   1.407       .  A
C931        C936   1.412       .  A
C931        H938   1.082       .  S
C932        C933   1.411       .  A
C933        C934   1.403       .  A
C933        F940   1.356       .  S
C934        C935   1.406       .  A
C934        H939   1.083       .  S
C935        C936   1.413       .  A
C936        F937   1.356       .  S
C941        C942   1.401       .  A
C941        C946   1.397       .  A
C941        H948   1.083       .  S
C942        C943   1.403       .  A
C943        C944   1.397       .  A
C943        F950   1.357       .  S
C944        C945   1.401       .  A
C944        H949   1.084       .  S
C945        C946   1.403       .  A
C946        F947   1.357       .  S
C951        C952   1.402       .  A
C951        C956   1.392       .  A
C951        H958   1.083       .  S
C952        C953   1.407       .  A
C953        C954   1.396       .  A
C953        F960   1.354       .  S
C954        C955   1.403       .  A
C954        H959   1.083       .  S
C955        C956   1.407       .  A
C956        F957   1.357       .  S
C961        C962   1.400       .  A
C961        C966   1.395       .  A
C961        H968   1.079       .  S
C962        C963   1.409       .  A
C963        C964   1.404       .  A
C963        F970   1.358       .  S
C964        C965   1.406       .  A
C964        H969   1.084       .  S
C965        C966   1.404       .  A
C966        F967   1.357       .  S
C971        C972   1.409       .  A
C971        C976   1.401       .  A
C971        H978   1.076       .  S
C972        C973   1.418       .  A
C973        C974   1.413       .  A
C973        F980   1.355       .  S
C974        C975   1.411       .  A
C974        H979   1.083       .  S
C975        C976   1.412       .  A
C976        F977   1.355       .  S
O981        C989   1.282       .  A
O982        C990   1.243       .  A
O983        C991   1.247       .  A
O983      Co1493   1.932       .  S
O984        C992   1.274       .  A
O984      Co1739   1.927       .  S
O985        C991   1.266       .  A
O985      Co1002   2.000   1_655  S
O986        C992   1.291       .  A
O986      Co1246   2.096       .  S
O987        C990   1.268       .  A
O987      Co1249   2.033   1_545  S
O988        C989   1.264       .  A
O988      Co1003   1.955       .  S
C989       C1094   1.492       .  S
C990       C1010   1.514       .  S
C991       C1058   1.495       .  S
C992       C1022   1.533       .  S
O993       C1006   1.278       .  A
O993      Co1001   1.934       .  S
O994       C1007   1.247       .  A
O994      Co1247   1.924   1_655  S
O995       C1008   1.239       .  A
O995      Co1248   1.947   1_554  S
O996       C1009   1.277       .  A
O996      Co1004   2.019   1_544  S
O997       C1009   1.259       .  A
O998       C1008   1.271       .  A
O999       C1006   1.290       .  A
O999      Co1494   2.085   1_554  S
O1000      C1007   1.267       .  A
O1000     Co1738   1.998   1_554  S
Co1001     O1231   2.096   1_554  S
Co1001     O1250   2.055       .  S
Co1002     O1239   1.924   1_455  S
Co1003     O1473   1.932       .  S
Co1003     O1240   1.947       .  S
Co1003     O1735   1.998       .  S
Co1004     O1719   1.927       .  S
Co1004     O1232   2.033   1_565  S
Co1004     O1489   2.085   1_556  S
Co1004     O1740   2.047   1_566  S
O1005     Co1246   2.055       .  S
O1005     Co1739   2.046       .  S
C1006      C1034   1.531       .  S
C1007      C1070   1.492       .  S
C1008      C1082   1.521       .  S
C1009      C1046   1.491       .  S
C1010      C1011   1.533       .  S
C1010      C1016   1.523       .  S
C1010      C1014   1.562       .  S
C1011      H1018   1.086       .  S
C1011      C1012   1.364       .  D
C1012      C1013   1.542       .  S
C1012      C1207   1.484       .  S
C1013      C1017   1.545       .  S
C1013      C1015   1.546       .  S
C1013      H1019   1.106       .  S
C1014      H1020   1.083       .  S
C1014      C1015   1.375       .  D
C1015      C1217   1.524       .  S
C1016      H1021   1.085       .  S
C1016      C1017   1.366       .  D
C1017      C1197   1.478       .  S
C1022      C1023   1.550       .  S
C1022      C1028   1.552       .  S
C1022      C1026   1.535       .  S
C1023      H1030   1.085       .  S
C1023      C1024   1.377       .  D
C1024      C1025   1.548       .  S
C1024      C1220   1.516       .  S
C1025      C1029   1.544       .  S
C1025      C1027   1.533       .  S
C1025      H1031   1.106       .  S
C1026      H1032   1.086       .  S
C1026      C1027   1.356       .  D
C1027      C1187   1.468       .  S
C1028      H1033   1.086       .  S
C1028      C1029   1.378       .  D
C1029      C1177   1.506       .  S
C1034      C1035   1.551       .  S
C1034      C1040   1.548       .  S
C1034      C1038   1.533       .  S
C1035      H1042   1.086       .  S
C1035      C1036   1.372       .  D
C1036      C1037   1.541       .  S
C1036      C1167   1.500       .  S
C1037      C1041   1.549       .  S
C1037      C1039   1.541       .  S
C1037      H1043   1.110       .  S
C1038      H1044   1.086       .  S
C1038      C1039   1.363       .  D
C1039      C1160   1.484       .  S
C1040      H1045   1.085       .  S
C1040      C1041   1.377       .  D
C1041      C1180   1.507       .  S
C1046      C1047   1.541       .  S
C1046      C1052   1.536       .  S
C1046      C1050   1.527       .  S
C1047      H1054   1.086       .  S
C1047      C1048   1.364       .  D
C1048      C1049   1.532       .  S
C1048      C1157   1.484       .  S
C1049      C1053   1.537       .  S
C1049      C1051   1.527       .  S
C1049      H1055   1.110       .  S
C1050      H1056   1.086       .  S
C1050      C1051   1.357       .  D
C1051      C1147   1.446       .  S
C1052      H1057   1.086       .  S
C1052      C1053   1.369       .  D
C1053      C1200   1.478       .  S
C1058      C1059   1.525       .  S
C1058      C1064   1.525       .  S
C1058      C1062   1.558       .  S
C1059      H1066   1.086       .  S
C1059      C1060   1.365       .  D
C1060      C1061   1.534       .  S
C1060      C1137   1.463       .  S
C1061      C1065   1.533       .  S
C1061      C1063   1.529       .  S
C1061      H1067   1.111       .  S
C1062      H1068   1.086       .  S
C1062      C1063   1.360       .  D
C1063      C1210   1.483       .  S
C1064      H1069   1.087       .  S
C1064      C1065   1.362       .  D
C1065      C1130   1.460       .  S
C1070      C1071   1.520       .  S
C1070      C1076   1.529       .  S
C1070      C1074   1.559       .  S
C1071      H1078   1.087       .  S
C1071      C1072   1.353       .  D
C1072      C1073   1.530       .  S
C1072      C1150   1.446       .  S
C1073      C1077   1.534       .  S
C1073      C1075   1.539       .  S
C1073      H1079   1.107       .  S
C1074      H1080   1.085       .  S
C1074      C1075   1.366       .  D
C1075      C1117   1.503       .  S
C1076      H1081   1.086       .  S
C1076      C1077   1.364       .  D
C1077      C1127   1.463       .  S
C1082      C1083   1.539       .  S
C1082      C1088   1.521       .  S
C1082      C1086   1.561       .  S
C1083      H1090   1.083       .  S
C1083      C1084   1.377       .  D
C1084      C1085   1.550       .  S
C1084      C1120   1.510       .  S
C1085      C1089   1.543       .  S
C1085      C1087   1.539       .  S
C1085      H1091   1.104       .  S
C1086      H1092   1.086       .  S
C1086      C1087   1.365       .  D
C1087      C1170   1.505       .  S
C1088      H1093   1.086       .  S
C1088      C1089   1.365       .  D
C1089      C1110   1.475       .  S
C1094      C1095   1.542       .  S
C1094      C1100   1.532       .  S
C1094      C1098   1.527       .  S
C1095      H1102   1.087       .  S
C1095      C1096   1.361       .  D
C1096      C1097   1.526       .  S
C1096      C1190   1.467       .  S
C1097      C1101   1.537       .  S
C1097      C1099   1.532       .  S
C1097      H1103   1.110       .  S
C1098      H1104   1.086       .  S
C1098      C1099   1.361       .  D
C1099      C1140   1.463       .  S
C1100      H1105   1.085       .  S
C1100      C1101   1.369       .  D
C1101      C1107   1.476       .  S
C1106      C1107   1.404       .  A
C1106      C1111   1.393       .  A
C1106      H1113   1.083       .  S
C1107      C1108   1.405       .  A
C1108      C1109   1.393       .  A
C1108      F1115   1.356       .  S
C1109      C1110   1.403       .  A
C1109      H1114   1.082       .  S
C1110      C1111   1.405       .  A
C1111      F1112   1.358       .  S
C1116      C1117   1.410       .  A
C1116      C1121   1.405       .  A
C1116      H1123   1.082       .  S
C1117      C1118   1.407       .  A
C1118      C1119   1.395       .  A
C1118      F1125   1.355       .  S
C1119      C1120   1.408       .  A
C1119      H1124   1.074       .  S
C1120      C1121   1.414       .  A
C1121      F1122   1.356       .  S
C1126      C1127   1.401       .  A
C1126      C1131   1.395       .  A
C1126      H1133   1.084       .  S
C1127      C1128   1.403       .  A
C1128      C1129   1.390       .  A
C1128      F1135   1.356       .  S
C1129      C1130   1.397       .  A
C1129      H1134   1.084       .  S
C1130      C1131   1.402       .  A
C1131      F1132   1.356       .  S
C1136      C1137   1.402       .  A
C1136      C1141   1.392       .  A
C1136      H1143   1.083       .  S
C1137      C1138   1.403       .  A
C1138      C1139   1.389       .  A
C1138      F1145   1.358       .  S
C1139      C1140   1.402       .  A
C1139      H1144   1.084       .  S
C1140      C1141   1.402       .  A
C1141      F1142   1.358       .  S
C1146      C1147   1.397       .  A
C1146      C1151   1.388       .  A
C1146      H1153   1.084       .  S
C1147      C1148   1.400       .  A
C1148      C1149   1.388       .  A
C1148      F1155   1.357       .  S
C1149      C1150   1.398       .  A
C1149      H1154   1.083       .  S
C1150      C1151   1.399       .  A
C1151      F1152   1.358       .  S
C1156      C1157   1.405       .  A
C1156      C1161   1.399       .  A
C1156      H1163   1.083       .  S
C1157      C1158   1.407       .  A
C1158      C1159   1.398       .  A
C1158      F1165   1.358       .  S
C1159      C1160   1.406       .  A
C1159      H1164   1.083       .  S
C1160      C1161   1.405       .  A
C1161      F1162   1.357       .  S
C1166      C1167   1.404       .  A
C1166      C1171   1.403       .  A
C1166      H1173   1.084       .  S
C1167      C1168   1.410       .  A
C1168      C1169   1.412       .  A
C1168      F1175   1.357       .  S
C1169      C1170   1.410       .  A
C1169      H1174   1.083       .  S
C1170      C1171   1.407       .  A
C1171      F1172   1.352       .  S
C1176      C1177   1.407       .  A
C1176      C1181   1.412       .  A
C1176      H1183   1.082       .  S
C1177      C1178   1.411       .  A
C1178      C1179   1.403       .  A
C1178      F1185   1.356       .  S
C1179      C1180   1.406       .  A
C1179      H1184   1.083       .  S
C1180      C1181   1.413       .  A
C1181      F1182   1.356       .  S
C1186      C1187   1.401       .  A
C1186      C1191   1.397       .  A
C1186      H1193   1.083       .  S
C1187      C1188   1.403       .  A
C1188      C1189   1.397       .  A
C1188      F1195   1.357       .  S
C1189      C1190   1.401       .  A
C1189      H1194   1.084       .  S
C1190      C1191   1.403       .  A
C1191      F1192   1.357       .  S
C1196      C1197   1.402       .  A
C1196      C1201   1.392       .  A
C1196      H1203   1.083       .  S
C1197      C1198   1.407       .  A
C1198      C1199   1.396       .  A
C1198      F1205   1.354       .  S
C1199      C1200   1.403       .  A
C1199      H1204   1.083       .  S
C1200      C1201   1.407       .  A
C1201      F1202   1.357       .  S
C1206      C1207   1.400       .  A
C1206      C1211   1.395       .  A
C1206      H1213   1.079       .  S
C1207      C1208   1.409       .  A
C1208      C1209   1.404       .  A
C1208      F1215   1.358       .  S
C1209      C1210   1.406       .  A
C1209      H1214   1.084       .  S
C1210      C1211   1.404       .  A
C1211      F1212   1.357       .  S
C1216      C1217   1.409       .  A
C1216      C1221   1.401       .  A
C1216      H1223   1.076       .  S
C1217      C1218   1.418       .  A
C1218      C1219   1.413       .  A
C1218      F1225   1.355       .  S
C1219      C1220   1.411       .  A
C1219      H1224   1.083       .  S
C1220      C1221   1.412       .  A
C1221      F1222   1.355       .  S
O1226      C1234   1.282       .  A
O1227      C1235   1.243       .  A
O1228      C1236   1.247       .  A
O1228     Co1738   1.932       .  S
O1229      C1237   1.274       .  A
O1229     Co1494   1.927       .  S
O1230      C1236   1.266       .  A
O1230     Co1247   2.000   1_656  S
O1231      C1237   1.291       .  A
O1232      C1235   1.268       .  A
O1233      C1234   1.264       .  A
O1233     Co1248   1.955       .  S
C1234      C1339   1.492       .  S
C1235      C1255   1.514       .  S
C1236      C1303   1.495       .  S
C1237      C1267   1.533       .  S
O1238      C1251   1.278       .  A
O1238     Co1246   1.934       .  S
O1239      C1252   1.247       .  A
O1240      C1253   1.239       .  A
O1241      C1254   1.277       .  A
O1241     Co1249   2.019   1_545  S
O1242      C1254   1.259       .  A
O1243      C1253   1.271       .  A
O1244      C1251   1.290       .  A
O1244     Co1739   2.085       .  S
O1245      C1252   1.267       .  A
O1245     Co1493   1.998       .  S
Co1248     O1718   1.932       .  S
Co1248     O1490   1.998   1_556  S
Co1249     O1474   1.927       .  S
Co1249     O1734   2.085       .  S
Co1249     O1495   2.047   1_565  S
O1250     Co1494   2.047   1_554  S
C1251      C1279   1.531       .  S
C1252      C1315   1.492       .  S
C1253      C1327   1.521       .  S
C1254      C1291   1.491       .  S
C1255      C1256   1.533       .  S
C1255      C1261   1.523       .  S
C1255      C1259   1.562       .  S
C1256      H1263   1.086       .  S
C1256      C1257   1.364       .  D
C1257      C1258   1.542       .  S
C1257      C1452   1.484       .  S
C1258      C1262   1.545       .  S
C1258      C1260   1.546       .  S
C1258      H1264   1.106       .  S
C1259      H1265   1.083       .  S
C1259      C1260   1.375       .  D
C1260      C1462   1.524       .  S
C1261      H1266   1.085       .  S
C1261      C1262   1.366       .  D
C1262      C1442   1.478       .  S
C1267      C1268   1.550       .  S
C1267      C1273   1.552       .  S
C1267      C1271   1.535       .  S
C1268      H1275   1.085       .  S
C1268      C1269   1.377       .  D
C1269      C1270   1.548       .  S
C1269      C1465   1.516       .  S
C1270      C1274   1.544       .  S
C1270      C1272   1.533       .  S
C1270      H1276   1.106       .  S
C1271      H1277   1.086       .  S
C1271      C1272   1.356       .  D
C1272      C1432   1.468       .  S
C1273      H1278   1.086       .  S
C1273      C1274   1.378       .  D
C1274      C1422   1.506       .  S
C1279      C1280   1.551       .  S
C1279      C1285   1.548       .  S
C1279      C1283   1.533       .  S
C1280      H1287   1.086       .  S
C1280      C1281   1.372       .  D
C1281      C1282   1.541       .  S
C1281      C1412   1.500       .  S
C1282      C1286   1.549       .  S
C1282      C1284   1.541       .  S
C1282      H1288   1.110       .  S
C1283      H1289   1.086       .  S
C1283      C1284   1.363       .  D
C1284      C1405   1.484       .  S
C1285      H1290   1.085       .  S
C1285      C1286   1.377       .  D
C1286      C1425   1.507       .  S
C1291      C1292   1.541       .  S
C1291      C1297   1.536       .  S
C1291      C1295   1.527       .  S
C1292      H1299   1.086       .  S
C1292      C1293   1.364       .  D
C1293      C1294   1.532       .  S
C1293      C1402   1.484       .  S
C1294      C1298   1.537       .  S
C1294      C1296   1.527       .  S
C1294      H1300   1.110       .  S
C1295      H1301   1.086       .  S
C1295      C1296   1.357       .  D
C1296      C1392   1.446       .  S
C1297      H1302   1.086       .  S
C1297      C1298   1.369       .  D
C1298      C1445   1.478       .  S
C1303      C1304   1.525       .  S
C1303      C1309   1.525       .  S
C1303      C1307   1.558       .  S
C1304      H1311   1.086       .  S
C1304      C1305   1.365       .  D
C1305      C1306   1.534       .  S
C1305      C1382   1.463       .  S
C1306      C1310   1.533       .  S
C1306      C1308   1.529       .  S
C1306      H1312   1.111       .  S
C1307      H1313   1.086       .  S
C1307      C1308   1.360       .  D
C1308      C1455   1.483       .  S
C1309      H1314   1.087       .  S
C1309      C1310   1.362       .  D
C1310      C1375   1.460       .  S
C1315      C1316   1.520       .  S
C1315      C1321   1.529       .  S
C1315      C1319   1.559       .  S
C1316      H1323   1.087       .  S
C1316      C1317   1.353       .  D
C1317      C1318   1.530       .  S
C1317      C1395   1.446       .  S
C1318      C1322   1.534       .  S
C1318      C1320   1.539       .  S
C1318      H1324   1.107       .  S
C1319      H1325   1.085       .  S
C1319      C1320   1.366       .  D
C1320      C1362   1.503       .  S
C1321      H1326   1.086       .  S
C1321      C1322   1.364       .  D
C1322      C1372   1.463       .  S
C1327      C1328   1.539       .  S
C1327      C1333   1.521       .  S
C1327      C1331   1.561       .  S
C1328      H1335   1.083       .  S
C1328      C1329   1.377       .  D
C1329      C1330   1.551       .  S
C1329      C1365   1.510       .  S
C1330      C1334   1.543       .  S
C1330      C1332   1.539       .  S
C1330      H1336   1.104       .  S
C1331      H1337   1.086       .  S
C1331      C1332   1.365       .  D
C1332      C1415   1.505       .  S
C1333      H1338   1.086       .  S
C1333      C1334   1.365       .  D
C1334      C1355   1.475       .  S
C1339      C1340   1.542       .  S
C1339      C1345   1.532       .  S
C1339      C1343   1.527       .  S
C1340      H1347   1.087       .  S
C1340      C1341   1.361       .  D
C1341      C1342   1.526       .  S
C1341      C1435   1.467       .  S
C1342      C1346   1.537       .  S
C1342      C1344   1.532       .  S
C1342      H1348   1.110       .  S
C1343      H1349   1.086       .  S
C1343      C1344   1.361       .  D
C1344      C1385   1.463       .  S
C1345      H1350   1.085       .  S
C1345      C1346   1.369       .  D
C1346      C1352   1.476       .  S
C1351      C1352   1.404       .  A
C1351      C1356   1.393       .  A
C1351      H1358   1.083       .  S
C1352      C1353   1.405       .  A
C1353      C1354   1.393       .  A
C1353      F1360   1.356       .  S
C1354      C1355   1.403       .  A
C1354      H1359   1.082       .  S
C1355      C1356   1.405       .  A
C1356      F1357   1.358       .  S
C1361      C1362   1.410       .  A
C1361      C1366   1.405       .  A
C1361      H1368   1.082       .  S
C1362      C1363   1.407       .  A
C1363      C1364   1.395       .  A
C1363      F1370   1.355       .  S
C1364      C1365   1.408       .  A
C1364      H1369   1.074       .  S
C1365      C1366   1.414       .  A
C1366      F1367   1.356       .  S
C1371      C1372   1.401       .  A
C1371      C1376   1.395       .  A
C1371      H1378   1.084       .  S
C1372      C1373   1.403       .  A
C1373      C1374   1.390       .  A
C1373      F1380   1.356       .  S
C1374      C1375   1.397       .  A
C1374      H1379   1.084       .  S
C1375      C1376   1.402       .  A
C1376      F1377   1.356       .  S
C1381      C1382   1.402       .  A
C1381      C1386   1.392       .  A
C1381      H1388   1.083       .  S
C1382      C1383   1.403       .  A
C1383      C1384   1.389       .  A
C1383      F1390   1.358       .  S
C1384      C1385   1.402       .  A
C1384      H1389   1.084       .  S
C1385      C1386   1.402       .  A
C1386      F1387   1.358       .  S
C1391      C1392   1.397       .  A
C1391      C1396   1.388       .  A
C1391      H1398   1.084       .  S
C1392      C1393   1.400       .  A
C1393      C1394   1.388       .  A
C1393      F1400   1.357       .  S
C1394      C1395   1.398       .  A
C1394      H1399   1.083       .  S
C1395      C1396   1.399       .  A
C1396      F1397   1.358       .  S
C1401      C1402   1.405       .  A
C1401      C1406   1.399       .  A
C1401      H1408   1.083       .  S
C1402      C1403   1.407       .  A
C1403      C1404   1.398       .  A
C1403      F1410   1.358       .  S
C1404      C1405   1.406       .  A
C1404      H1409   1.083       .  S
C1405      C1406   1.405       .  A
C1406      F1407   1.357       .  S
C1411      C1412   1.404       .  A
C1411      C1416   1.403       .  A
C1411      H1418   1.084       .  S
C1412      C1413   1.410       .  A
C1413      C1414   1.412       .  A
C1413      F1420   1.357       .  S
C1414      C1415   1.410       .  A
C1414      H1419   1.083       .  S
C1415      C1416   1.407       .  A
C1416      F1417   1.352       .  S
C1421      C1422   1.407       .  A
C1421      C1426   1.412       .  A
C1421      H1428   1.082       .  S
C1422      C1423   1.411       .  A
C1423      C1424   1.403       .  A
C1423      F1430   1.356       .  S
C1424      C1425   1.406       .  A
C1424      H1429   1.083       .  S
C1425      C1426   1.413       .  A
C1426      F1427   1.356       .  S
C1431      C1432   1.401       .  A
C1431      C1436   1.397       .  A
C1431      H1438   1.083       .  S
C1432      C1433   1.403       .  A
C1433      C1434   1.397       .  A
C1433      F1440   1.357       .  S
C1434      C1435   1.401       .  A
C1434      H1439   1.084       .  S
C1435      C1436   1.403       .  A
C1436      F1437   1.357       .  S
C1441      C1442   1.402       .  A
C1441      C1446   1.392       .  A
C1441      H1448   1.083       .  S
C1442      C1443   1.407       .  A
C1443      C1444   1.396       .  A
C1443      F1450   1.354       .  S
C1444      C1445   1.403       .  A
C1444      H1449   1.083       .  S
C1445      C1446   1.407       .  A
C1446      F1447   1.357       .  S
C1451      C1452   1.400       .  A
C1451      C1456   1.395       .  A
C1451      H1458   1.079       .  S
C1452      C1453   1.409       .  A
C1453      C1454   1.404       .  A
C1453      F1460   1.358       .  S
C1454      C1455   1.406       .  A
C1454      H1459   1.084       .  S
C1455      C1456   1.404       .  A
C1456      F1457   1.357       .  S
C1461      C1462   1.409       .  A
C1461      C1466   1.401       .  A
C1461      H1468   1.076       .  S
C1462      C1463   1.418       .  A
C1463      C1464   1.413       .  A
C1463      F1470   1.355       .  S
C1464      C1465   1.411       .  A
C1464      H1469   1.083       .  S
C1465      C1466   1.412       .  A
C1466      F1467   1.355       .  S
O1471      C1479   1.282       .  A
O1472      C1480   1.243       .  A
O1473      C1481   1.247       .  A
O1474      C1482   1.274       .  A
O1475      C1481   1.266       .  A
O1475     Co1492   2.000   1_655  S
O1476      C1482   1.291       .  A
O1476     Co1736   2.096       .  S
O1477      C1480   1.268       .  A
O1477     Co1739   2.033       .  S
O1478      C1479   1.264       .  A
O1478     Co1493   1.955   1_565  S
C1479      C1584   1.492       .  S
C1480      C1500   1.514       .  S
C1481      C1548   1.495       .  S
C1482      C1512   1.533       .  S
O1483      C1496   1.278       .  A
O1483     Co1491   1.934       .  S
O1484      C1497   1.247       .  A
O1484     Co1737   1.924   1_655  S
O1485      C1498   1.239       .  A
O1485     Co1738   1.947   1_564  S
O1486      C1499   1.277       .  A
O1486     Co1494   2.019   1_554  S
O1487      C1499   1.259       .  A
O1488      C1498   1.271       .  A
O1489      C1496   1.290       .  A
O1490      C1497   1.267       .  A
Co1491     O1721   2.096   1_554  S
Co1491     O1740   2.055   1_565  S
Co1492     O1729   1.924   1_455  S
Co1493     O1730   1.947   1_545  S
Co1494     O1722   2.033       .  S
O1495     Co1736   2.055   1_545  S
C1496      C1524   1.531       .  S
C1497      C1560   1.492       .  S
C1498      C1572   1.521       .  S
C1499      C1536   1.491       .  S
C1500      C1501   1.533       .  S
C1500      C1506   1.523       .  S
C1500      C1504   1.562       .  S
C1501      H1508   1.086       .  S
C1501      C1502   1.364       .  D
C1502      C1503   1.542       .  S
C1502      C1697   1.484       .  S
C1503      C1507   1.545       .  S
C1503      C1505   1.546       .  S
C1503      H1509   1.106       .  S
C1504      H1510   1.083       .  S
C1504      C1505   1.375       .  D
C1505      C1707   1.524       .  S
C1506      H1511   1.085       .  S
C1506      C1507   1.366       .  D
C1507      C1687   1.478       .  S
C1512      C1513   1.550       .  S
C1512      C1518   1.552       .  S
C1512      C1516   1.535       .  S
C1513      H1520   1.085       .  S
C1513      C1514   1.377       .  D
C1514      C1515   1.548       .  S
C1514      C1710   1.516       .  S
C1515      C1519   1.544       .  S
C1515      C1517   1.533       .  S
C1515      H1521   1.106       .  S
C1516      H1522   1.086       .  S
C1516      C1517   1.356       .  D
C1517      C1677   1.468       .  S
C1518      H1523   1.086       .  S
C1518      C1519   1.378       .  D
C1519      C1667   1.506       .  S
C1524      C1525   1.551       .  S
C1524      C1530   1.548       .  S
C1524      C1528   1.533       .  S
C1525      H1532   1.086       .  S
C1525      C1526   1.372       .  D
C1526      C1527   1.541       .  S
C1526      C1657   1.500       .  S
C1527      C1531   1.549       .  S
C1527      C1529   1.541       .  S
C1527      H1533   1.110       .  S
C1528      H1534   1.086       .  S
C1528      C1529   1.363       .  D
C1529      C1650   1.484       .  S
C1530      H1535   1.085       .  S
C1530      C1531   1.377       .  D
C1531      C1670   1.507       .  S
C1536      C1537   1.541       .  S
C1536      C1542   1.536       .  S
C1536      C1540   1.527       .  S
C1537      H1544   1.086       .  S
C1537      C1538   1.364       .  D
C1538      C1539   1.532       .  S
C1538      C1647   1.484       .  S
C1539      C1543   1.537       .  S
C1539      C1541   1.527       .  S
C1539      H1545   1.110       .  S
C1540      H1546   1.086       .  S
C1540      C1541   1.357       .  D
C1541      C1637   1.446       .  S
C1542      H1547   1.086       .  S
C1542      C1543   1.369       .  D
C1543      C1690   1.478       .  S
C1548      C1549   1.525       .  S
C1548      C1554   1.525       .  S
C1548      C1552   1.558       .  S
C1549      H1556   1.086       .  S
C1549      C1550   1.365       .  D
C1550      C1551   1.534       .  S
C1550      C1627   1.463       .  S
C1551      C1555   1.533       .  S
C1551      C1553   1.529       .  S
C1551      H1557   1.111       .  S
C1552      H1558   1.086       .  S
C1552      C1553   1.360       .  D
C1553      C1700   1.483       .  S
C1554      H1559   1.087       .  S
C1554      C1555   1.362       .  D
C1555      C1620   1.460       .  S
C1560      C1561   1.520       .  S
C1560      C1566   1.529       .  S
C1560      C1564   1.559       .  S
C1561      H1568   1.087       .  S
C1561      C1562   1.353       .  D
C1562      C1563   1.530       .  S
C1562      C1640   1.446       .  S
C1563      C1567   1.534       .  S
C1563      C1565   1.539       .  S
C1563      H1569   1.107       .  S
C1564      H1570   1.085       .  S
C1564      C1565   1.366       .  D
C1565      C1607   1.503       .  S
C1566      H1571   1.086       .  S
C1566      C1567   1.364       .  D
C1567      C1617   1.463       .  S
C1572      C1573   1.539       .  S
C1572      C1578   1.521       .  S
C1572      C1576   1.561       .  S
C1573      H1580   1.083       .  S
C1573      C1574   1.377       .  D
C1574      C1575   1.551       .  S
C1574      C1610   1.510       .  S
C1575      C1579   1.543       .  S
C1575      C1577   1.539       .  S
C1575      H1581   1.104       .  S
C1576      H1582   1.086       .  S
C1576      C1577   1.365       .  D
C1577      C1660   1.505       .  S
C1578      H1583   1.086       .  S
C1578      C1579   1.365       .  D
C1579      C1600   1.475       .  S
C1584      C1585   1.542       .  S
C1584      C1590   1.532       .  S
C1584      C1588   1.527       .  S
C1585      H1592   1.087       .  S
C1585      C1586   1.361       .  D
C1586      C1587   1.526       .  S
C1586      C1680   1.467       .  S
C1587      C1591   1.537       .  S
C1587      C1589   1.532       .  S
C1587      H1593   1.110       .  S
C1588      H1594   1.086       .  S
C1588      C1589   1.361       .  D
C1589      C1630   1.463       .  S
C1590      H1595   1.085       .  S
C1590      C1591   1.369       .  D
C1591      C1597   1.476       .  S
C1596      C1597   1.404       .  A
C1596      C1601   1.393       .  A
C1596      H1603   1.083       .  S
C1597      C1598   1.405       .  A
C1598      C1599   1.393       .  A
C1598      F1605   1.356       .  S
C1599      C1600   1.403       .  A
C1599      H1604   1.082       .  S
C1600      C1601   1.405       .  A
C1601      F1602   1.358       .  S
C1606      C1607   1.410       .  A
C1606      C1611   1.405       .  A
C1606      H1613   1.082       .  S
C1607      C1608   1.407       .  A
C1608      C1609   1.395       .  A
C1608      F1615   1.355       .  S
C1609      C1610   1.408       .  A
C1609      H1614   1.074       .  S
C1610      C1611   1.414       .  A
C1611      F1612   1.356       .  S
C1616      C1617   1.401       .  A
C1616      C1621   1.395       .  A
C1616      H1623   1.084       .  S
C1617      C1618   1.403       .  A
C1618      C1619   1.390       .  A
C1618      F1625   1.356       .  S
C1619      C1620   1.397       .  A
C1619      H1624   1.084       .  S
C1620      C1621   1.402       .  A
C1621      F1622   1.356       .  S
C1626      C1627   1.402       .  A
C1626      C1631   1.392       .  A
C1626      H1633   1.083       .  S
C1627      C1628   1.403       .  A
C1628      C1629   1.389       .  A
C1628      F1635   1.358       .  S
C1629      C1630   1.402       .  A
C1629      H1634   1.084       .  S
C1630      C1631   1.402       .  A
C1631      F1632   1.358       .  S
C1636      C1637   1.397       .  A
C1636      C1641   1.388       .  A
C1636      H1643   1.084       .  S
C1637      C1638   1.400       .  A
C1638      C1639   1.388       .  A
C1638      F1645   1.357       .  S
C1639      C1640   1.398       .  A
C1639      H1644   1.083       .  S
C1640      C1641   1.399       .  A
C1641      F1642   1.358       .  S
C1646      C1647   1.405       .  A
C1646      C1651   1.399       .  A
C1646      H1653   1.083       .  S
C1647      C1648   1.407       .  A
C1648      C1649   1.398       .  A
C1648      F1655   1.358       .  S
C1649      C1650   1.406       .  A
C1649      H1654   1.083       .  S
C1650      C1651   1.405       .  A
C1651      F1652   1.357       .  S
C1656      C1657   1.404       .  A
C1656      C1661   1.403       .  A
C1656      H1663   1.084       .  S
C1657      C1658   1.410       .  A
C1658      C1659   1.412       .  A
C1658      F1665   1.357       .  S
C1659      C1660   1.410       .  A
C1659      H1664   1.083       .  S
C1660      C1661   1.407       .  A
C1661      F1662   1.352       .  S
C1666      C1667   1.407       .  A
C1666      C1671   1.412       .  A
C1666      H1673   1.082       .  S
C1667      C1668   1.411       .  A
C1668      C1669   1.403       .  A
C1668      F1675   1.356       .  S
C1669      C1670   1.406       .  A
C1669      H1674   1.083       .  S
C1670      C1671   1.413       .  A
C1671      F1672   1.356       .  S
C1676      C1677   1.401       .  A
C1676      C1681   1.397       .  A
C1676      H1683   1.083       .  S
C1677      C1678   1.403       .  A
C1678      C1679   1.397       .  A
C1678      F1685   1.357       .  S
C1679      C1680   1.401       .  A
C1679      H1684   1.084       .  S
C1680      C1681   1.403       .  A
C1681      F1682   1.357       .  S
C1686      C1687   1.402       .  A
C1686      C1691   1.392       .  A
C1686      H1693   1.083       .  S
C1687      C1688   1.407       .  A
C1688      C1689   1.396       .  A
C1688      F1695   1.354       .  S
C1689      C1690   1.403       .  A
C1689      H1694   1.083       .  S
C1690      C1691   1.407       .  A
C1691      F1692   1.357       .  S
C1696      C1697   1.400       .  A
C1696      C1701   1.394       .  A
C1696      H1703   1.079       .  S
C1697      C1698   1.409       .  A
C1698      C1699   1.404       .  A
C1698      F1705   1.358       .  S
C1699      C1700   1.406       .  A
C1699      H1704   1.084       .  S
C1700      C1701   1.404       .  A
C1701      F1702   1.357       .  S
C1706      C1707   1.409       .  A
C1706      C1711   1.401       .  A
C1706      H1713   1.076       .  S
C1707      C1708   1.418       .  A
C1708      C1709   1.413       .  A
C1708      F1715   1.355       .  S
C1709      C1710   1.411       .  A
C1709      H1714   1.083       .  S
C1710      C1711   1.412       .  A
C1711      F1712   1.355       .  S
O1716      C1724   1.282       .  A
O1717      C1725   1.243       .  A
O1718      C1726   1.247       .  A
O1719      C1727   1.274       .  A
O1720      C1726   1.266       .  A
O1720     Co1737   2.000   1_656  S
O1721      C1727   1.291       .  A
O1722      C1725   1.268       .  A
O1723      C1724   1.264       .  A
O1723     Co1738   1.955   1_565  S
C1724      C1829   1.492       .  S
C1725      C1745   1.514       .  S
C1726      C1793   1.495       .  S
C1727      C1757   1.533       .  S
O1728      C1741   1.278       .  A
O1728     Co1736   1.934       .  S
O1729      C1742   1.247       .  A
O1730      C1743   1.239       .  A
O1731      C1744   1.277       .  A
O1731     Co1739   2.019       .  S
O1732      C1744   1.259       .  A
O1733      C1743   1.271       .  A
O1734      C1741   1.290       .  A
O1735      C1742   1.267       .  A
C1741      C1769   1.531       .  S
C1742      C1805   1.492       .  S
C1743      C1817   1.521       .  S
C1744      C1781   1.491       .  S
C1745      C1746   1.533       .  S
C1745      C1751   1.523       .  S
C1745      C1749   1.562       .  S
C1746      H1753   1.086       .  S
C1746      C1747   1.364       .  D
C1747      C1748   1.542       .  S
C1747      C1942   1.484       .  S
C1748      C1752   1.545       .  S
C1748      C1750   1.546       .  S
C1748      H1754   1.106       .  S
C1749      H1755   1.083       .  S
C1749      C1750   1.375       .  D
C1750      C1952   1.524       .  S
C1751      H1756   1.085       .  S
C1751      C1752   1.366       .  D
C1752      C1932   1.478       .  S
C1757      C1758   1.550       .  S
C1757      C1763   1.552       .  S
C1757      C1761   1.535       .  S
C1758      H1765   1.085       .  S
C1758      C1759   1.377       .  D
C1759      C1760   1.548       .  S
C1759      C1955   1.516       .  S
C1760      C1764   1.544       .  S
C1760      C1762   1.533       .  S
C1760      H1766   1.106       .  S
C1761      H1767   1.086       .  S
C1761      C1762   1.356       .  D
C1762      C1922   1.468       .  S
C1763      H1768   1.086       .  S
C1763      C1764   1.378       .  D
C1764      C1912   1.506       .  S
C1769      C1770   1.551       .  S
C1769      C1775   1.548       .  S
C1769      C1773   1.533       .  S
C1770      H1777   1.086       .  S
C1770      C1771   1.372       .  D
C1771      C1772   1.541       .  S
C1771      C1902   1.500       .  S
C1772      C1776   1.549       .  S
C1772      C1774   1.541       .  S
C1772      H1778   1.110       .  S
C1773      H1779   1.086       .  S
C1773      C1774   1.363       .  D
C1774      C1895   1.484       .  S
C1775      H1780   1.085       .  S
C1775      C1776   1.377       .  D
C1776      C1915   1.507       .  S
C1781      C1782   1.541       .  S
C1781      C1787   1.536       .  S
C1781      C1785   1.527       .  S
C1782      H1789   1.086       .  S
C1782      C1783   1.364       .  D
C1783      C1784   1.532       .  S
C1783      C1892   1.484       .  S
C1784      C1788   1.536       .  S
C1784      C1786   1.527       .  S
C1784      H1790   1.110       .  S
C1785      H1791   1.086       .  S
C1785      C1786   1.357       .  D
C1786      C1882   1.446       .  S
C1787      H1792   1.086       .  S
C1787      C1788   1.369       .  D
C1788      C1935   1.478       .  S
C1793      C1794   1.525       .  S
C1793      C1799   1.525       .  S
C1793      C1797   1.558       .  S
C1794      H1801   1.086       .  S
C1794      C1795   1.365       .  D
C1795      C1796   1.534       .  S
C1795      C1872   1.463       .  S
C1796      C1800   1.533       .  S
C1796      C1798   1.529       .  S
C1796      H1802   1.111       .  S
C1797      H1803   1.086       .  S
C1797      C1798   1.360       .  D
C1798      C1945   1.483       .  S
C1799      H1804   1.087       .  S
C1799      C1800   1.362       .  D
C1800      C1865   1.460       .  S
C1805      C1806   1.520       .  S
C1805      C1811   1.529       .  S
C1805      C1809   1.559       .  S
C1806      H1813   1.087       .  S
C1806      C1807   1.353       .  D
C1807      C1808   1.530       .  S
C1807      C1885   1.446       .  S
C1808      C1812   1.534       .  S
C1808      C1810   1.539       .  S
C1808      H1814   1.107       .  S
C1809      H1815   1.085       .  S
C1809      C1810   1.366       .  D
C1810      C1852   1.503       .  S
C1811      H1816   1.086       .  S
C1811      C1812   1.364       .  D
C1812      C1862   1.463       .  S
C1817      C1818   1.539       .  S
C1817      C1823   1.521       .  S
C1817      C1821   1.561       .  S
C1818      H1825   1.083       .  S
C1818      C1819   1.377       .  D
C1819      C1820   1.550       .  S
C1819      C1855   1.510       .  S
C1820      C1824   1.543       .  S
C1820      C1822   1.539       .  S
C1820      H1826   1.104       .  S
C1821      H1827   1.086       .  S
C1821      C1822   1.365       .  D
C1822      C1905   1.505       .  S
C1823      H1828   1.086       .  S
C1823      C1824   1.365       .  D
C1824      C1845   1.475       .  S
C1829      C1830   1.542       .  S
C1829      C1835   1.532       .  S
C1829      C1833   1.527       .  S
C1830      H1837   1.087       .  S
C1830      C1831   1.361       .  D
C1831      C1832   1.526       .  S
C1831      C1925   1.467       .  S
C1832      C1836   1.537       .  S
C1832      C1834   1.532       .  S
C1832      H1838   1.110       .  S
C1833      H1839   1.086       .  S
C1833      C1834   1.361       .  D
C1834      C1875   1.463       .  S
C1835      H1840   1.085       .  S
C1835      C1836   1.369       .  D
C1836      C1842   1.476       .  S
C1841      C1842   1.404       .  A
C1841      C1846   1.393       .  A
C1841      H1848   1.083       .  S
C1842      C1843   1.405       .  A
C1843      C1844   1.393       .  A
C1843      F1850   1.356       .  S
C1844      C1845   1.403       .  A
C1844      H1849   1.082       .  S
C1845      C1846   1.405       .  A
C1846      F1847   1.358       .  S
C1851      C1852   1.410       .  A
C1851      C1856   1.405       .  A
C1851      H1858   1.082       .  S
C1852      C1853   1.407       .  A
C1853      C1854   1.395       .  A
C1853      F1860   1.355       .  S
C1854      C1855   1.408       .  A
C1854      H1859   1.074       .  S
C1855      C1856   1.414       .  A
C1856      F1857   1.356       .  S
C1861      C1862   1.401       .  A
C1861      C1866   1.395       .  A
C1861      H1868   1.084       .  S
C1862      C1863   1.403       .  A
C1863      C1864   1.390       .  A
C1863      F1870   1.356       .  S
C1864      C1865   1.397       .  A
C1864      H1869   1.084       .  S
C1865      C1866   1.402       .  A
C1866      F1867   1.356       .  S
C1871      C1872   1.402       .  A
C1871      C1876   1.392       .  A
C1871      H1878   1.083       .  S
C1872      C1873   1.403       .  A
C1873      C1874   1.389       .  A
C1873      F1880   1.358       .  S
C1874      C1875   1.402       .  A
C1874      H1879   1.084       .  S
C1875      C1876   1.402       .  A
C1876      F1877   1.358       .  S
C1881      C1882   1.397       .  A
C1881      C1886   1.388       .  A
C1881      H1888   1.084       .  S
C1882      C1883   1.400       .  A
C1883      C1884   1.388       .  A
C1883      F1890   1.357       .  S
C1884      C1885   1.398       .  A
C1884      H1889   1.083       .  S
C1885      C1886   1.399       .  A
C1886      F1887   1.358       .  S
C1891      C1892   1.405       .  A
C1891      C1896   1.399       .  A
C1891      H1898   1.083       .  S
C1892      C1893   1.407       .  A
C1893      C1894   1.398       .  A
C1893      F1900   1.358       .  S
C1894      C1895   1.406       .  A
C1894      H1899   1.083       .  S
C1895      C1896   1.405       .  A
C1896      F1897   1.357       .  S
C1901      C1902   1.404       .  A
C1901      C1906   1.403       .  A
C1901      H1908   1.084       .  S
C1902      C1903   1.410       .  A
C1903      C1904   1.412       .  A
C1903      F1910   1.357       .  S
C1904      C1905   1.410       .  A
C1904      H1909   1.083       .  S
C1905      C1906   1.407       .  A
C1906      F1907   1.352       .  S
C1911      C1912   1.407       .  A
C1911      C1916   1.412       .  A
C1911      H1918   1.082       .  S
C1912      C1913   1.411       .  A
C1913      C1914   1.403       .  A
C1913      F1920   1.356       .  S
C1914      C1915   1.406       .  A
C1914      H1919   1.083       .  S
C1915      C1916   1.413       .  A
C1916      F1917   1.356       .  S
C1921      C1922   1.401       .  A
C1921      C1926   1.397       .  A
C1921      H1928   1.083       .  S
C1922      C1923   1.403       .  A
C1923      C1924   1.397       .  A
C1923      F1930   1.357       .  S
C1924      C1925   1.401       .  A
C1924      H1929   1.084       .  S
C1925      C1926   1.403       .  A
C1926      F1927   1.357       .  S
C1931      C1932   1.402       .  A
C1931      C1936   1.392       .  A
C1931      H1938   1.083       .  S
C1932      C1933   1.407       .  A
C1933      C1934   1.396       .  A
C1933      F1940   1.354       .  S
C1934      C1935   1.403       .  A
C1934      H1939   1.083       .  S
C1935      C1936   1.407       .  A
C1936      F1937   1.357       .  S
C1941      C1942   1.400       .  A
C1941      C1946   1.394       .  A
C1941      H1948   1.079       .  S
C1942      C1943   1.409       .  A
C1943      C1944   1.404       .  A
C1943      F1950   1.358       .  S
C1944      C1945   1.406       .  A
C1944      H1949   1.084       .  S
C1945      C1946   1.404       .  A
C1946      F1947   1.357       .  S
C1951      C1952   1.409       .  A
C1951      C1956   1.401       .  A
C1951      H1958   1.076       .  S
C1952      C1953   1.418       .  A
C1953      C1954   1.413       .  A
C1953      F1960   1.355       .  S
C1954      C1955   1.411       .  A
C1954      H1959   1.083       .  S
C1955      C1956   1.412       .  A
C1956      F1957   1.355       .  S
