geometry optimzed in LAMMPS
_audit_creation_date              2020-12-01 
_audit_creation_method            'lammps2cif' 
_symmetry_space_group_name_H-M    'P1' 
_symmetry_Int_Tables_number       1 
_symmetry_cell_setting            triclinic 
loop_ 
_symmetry_equiv_pos_as_xyz 
  x,y,z 
_cell_length_a                    18.0789221 
_cell_length_b                    38.91713181220651 
_cell_length_c                    19.332435621775453 
_cell_angle_alpha                 81.01446256033361 
_cell_angle_beta                  88.32877295028678 
_cell_angle_gamma                 88.85098817207806 
loop_ 
_atom_site_label 
_atom_site_type_symbol 
_atom_site_fract_x 
_atom_site_fract_y 
_atom_site_fract_z 
_atom_site_charge 
C1          C  0.12128883  0.08754638  0.24865844     0.87000
C2          C  0.16199536  0.11268569  0.19009145    -0.53300
C3          C  0.21263500  0.13330583  0.21333595     0.09900
C4          C  0.21341576  0.12788747  0.29601604     0.20900
C5          C  0.18325227  0.06813849  0.29254301    -0.54000
C6          C  0.23496902  0.08810954  0.31579090     0.10000
C7          C  0.08245824  0.11174520  0.29480708    -0.53500
C8          C  0.12815355  0.13310828  0.32175624     0.10600
H9          H  0.15201183  0.11418662  0.13463627     0.15100
H10         H  0.25202277  0.14537160  0.31655868     0.00800
H11         H  0.18524847  0.04028388  0.30214101     0.15400
H12         H  0.02287052  0.11399182  0.30086133     0.15200
C13         C  0.09773313  0.16517150  0.35638600     0.30500
C14         C  0.09664799  0.22779976  0.40702316     0.30500
C15         C  0.14181219  0.19430939  0.31648950    -0.05700
C16         C  0.01857199  0.18445394  0.35541143    -0.06500
C17         C  0.11740991  0.16360800  0.43415218    -0.06400
C18         C  0.14722416  0.22470726  0.34443319    -0.05700
C19         C  0.01874489  0.21682749  0.38158951    -0.06500
C20         C  0.11650073  0.19534357  0.45970698    -0.06400
C21         C  0.15885019  0.25059092  0.28907948    -0.31700
N22         N  0.15300756  0.23788925  0.22920704     0.14800
C23         C  0.13794867  0.20416436  0.24549586    -0.31800
H24         H  0.11207901  0.18902555  0.21090297     0.16700
C25         C  0.94583153  0.22979776  0.37830855    -0.30700
N26         N  0.90089127  0.20760011  0.35117504     0.13500
C27         C  0.94470994  0.18012100  0.33642494    -0.30700
C28         C  0.10054057  0.18730886  0.53095227    -0.31000
N29         N  0.10087152  0.15233945  0.55260966     0.14000
H30         H  0.08585134  0.20612355  0.56486529     0.16600
C31         C  0.10206582  0.13850155  0.49217102    -0.31000
H32         H  0.09423225  0.11112507  0.49061639     0.16600
H33         H  0.92427828  0.15810724  0.31523250     0.16600
H34         H  0.15809779  0.27734589  0.29343859     0.16700
H35         H  0.92645757  0.25384316  0.39439797     0.16600
C36         C  0.09224343  0.31371694  0.49152786     0.87000
C37         C  0.15266076  0.29641312  0.54245030    -0.53300
C38         C  0.20673766  0.27895104  0.51213604     0.09900
C39         C  0.19374987  0.27920418  0.43317874     0.20900
C40         C  0.13636571  0.33676636  0.43242654    -0.54000
C41         C  0.19243593  0.31977111  0.40180811     0.10000
C42         C  0.06279494  0.28256128  0.45945284    -0.53500
C43         C  0.11415759  0.26356869  0.43072450     0.10600
H44         H  0.15168447  0.29622243  0.59861075     0.15100
H45         H  0.23295439  0.26312302  0.40714527     0.00800
H46         H  0.12768421  0.36470150  0.42017203     0.15400
H47         H  0.00676814  0.27338151  0.46527892     0.15200
C48         C  0.30768444  0.07238092  0.35287314     0.30500
C49         C  0.43680637  0.05273941  0.42658452     0.30500
C50         C  0.30925813  0.07910157  0.42706347    -0.05700
C51         C  0.32959736  0.03117250  0.36371547    -0.06500
C52         C  0.38021801  0.09000487  0.32316717    -0.06400
C53         C  0.37045345  0.06729376  0.46492352    -0.05700
C54         C  0.39593457  0.02138987  0.40159935    -0.06500
C55         C  0.44437605  0.07720262  0.35540257    -0.06400
C56         C  0.35439940  0.07110150  0.53320214    -0.31700
N57         N  0.28953578  0.08887502  0.53507531     0.14800
C58         C  0.26149858  0.09355398  0.47027108    -0.31800
H59         H  0.21029134  0.10583959  0.45492902     0.16700
C60         C  0.39467734  0.48190164  0.41136724    -0.30700
N61         N  0.33573835  0.46887123  0.38076710     0.13500
C62         C  0.29334236  0.49696586  0.35280244    -0.30700
C63         C  0.50265050  0.09403277  0.31707763    -0.31000
N64         N  0.47626002  0.12124249  0.27081993     0.14000
H65         H  0.56045687  0.08718113  0.32424777     0.16600
C66         C  0.40147117  0.12047561  0.28046086    -0.31000
H67         H  0.36585346  0.14242753  0.26628410     0.16600
H68         H  0.24550406  0.49396963  0.32260026     0.16600
H69         H  0.38826149  0.06186143  0.57756231     0.16700
H70         H  0.43911968  0.46602909  0.43638992     0.16600
C71         C  0.61670719  0.15405571  0.12254073     0.87000
C72         C  0.64834066  0.18074692  0.16356132    -0.53300
C73         C  0.59888208  0.19585452  0.20285563     0.09900
C74         C  0.51585811  0.18302024  0.19354968     0.20900
C75         C  0.57301479  0.12812513  0.17769040    -0.54000
C76         C  0.51980753  0.14275870  0.21532454     0.10000
C77         C  0.55545340  0.17294828  0.07617112    -0.53500
C78         C  0.50003020  0.18743529  0.11220088     0.10600
H79         H  0.70735929  0.18455431  0.16679909     0.15100
H80         H  0.47312804  0.19550149  0.22422512     0.00800
H81         H  0.57935826  0.10016688  0.18594156     0.15400
H82         H  0.55503242  0.17320753  0.02017873     0.15200
C83         C  0.20080344  0.09968404  0.71022844     0.87000
C84         C  0.13080207  0.11602510  0.67029974    -0.53300
C85         C  0.14983854  0.13741767  0.60798332     0.09900
C86         C  0.23335440  0.13953509  0.59322400     0.20900
C87         C  0.24156318  0.08101785  0.65528911    -0.54000
C88         C  0.25715949  0.10177815  0.59438789     0.10000
C89         C  0.24727915  0.13097198  0.71899226    -0.53500
C90         C  0.26700511  0.15100813  0.65862365     0.10600
H91         H  0.07407210  0.11020672  0.68705552     0.15100
H92         H  0.24886812  0.15597552  0.54282510     0.00800
H93         H  0.25492119  0.05334338  0.66319499     0.15400
H94         H  0.26978957  0.13412233  0.76868248     0.15200
C95         C  0.62213267  0.23774781  0.39208511     0.30500
C96         C  0.62534343  0.21227993  0.26698185     0.30500
C97         C  0.59553418  0.26289747  0.32763367    -0.05700
C98         C  0.70237007  0.22745858  0.36596922    -0.06500
C99         C  0.58184818  0.20430975  0.39010033    -0.06400
C100        C  0.59804385  0.24988243  0.26434717    -0.05700
C101        C  0.70475158  0.21390237  0.30125319    -0.06500
C102        C  0.58523362  0.19120074  0.32764425    -0.06400
C103        C  0.61105582  0.27821210  0.21274599    -0.31700
N104        N  0.60684688  0.30844975  0.23908740     0.14800
C105        C  0.60437496  0.29865456  0.30979576    -0.31800
H106        H  0.61212516  0.31636965  0.34676605     0.16700
C107        C  0.77951716  0.20422255  0.29067523    -0.30700
N108        N  0.82176172  0.21201267  0.34417114     0.13500
C109        C  0.77488999  0.22616597  0.38969461    -0.30700
C110        C  0.59286215  0.15570009  0.34507533    -0.31000
N111        N  0.58518629  0.14689747  0.41401831     0.14000
H112        H  0.61657021  0.13846535  0.31156053     0.16600
C113        C  0.58349871  0.17610387  0.44203805    -0.31000
H114        H  0.60227015  0.17734988  0.49326191     0.16600
H115        H  0.79195528  0.23444699  0.43759340     0.16600
H116        H  0.62767652  0.27696889  0.15910129     0.16700
H117        H  0.80149042  0.19259137  0.24699100     0.16600
C118        C  0.52241625  0.38637587  0.11708397     0.87000
C119        C  0.49433563  0.35815869  0.07615136    -0.53300
C120        C  0.47258199  0.32869578  0.11743973     0.09900
C121        C  0.47918238  0.32969537  0.19507939     0.20900
C122        C  0.45965077  0.39246243  0.16939646    -0.54000
C123        C  0.43721839  0.36316619  0.21096658     0.10000
C124        C  0.58507484  0.36661979  0.16327783    -0.53500
C125        C  0.56077081  0.33644969  0.20408984     0.10600
H126        H  0.49297093  0.36105905  0.01938716     0.15100
H127        H  0.46066716  0.30465414  0.22549372     0.00800
H128        H  0.43358764  0.41766513  0.17143324     0.15400
H129        H  0.64254986  0.37382122  0.16143976     0.15200
C130        C  0.62764957  0.06155151  0.52633683     0.87000
C131        C  0.58608667  0.07798442  0.58614198    -0.53300
C132        C  0.52575299  0.09797277  0.56478807     0.09900
C133        C  0.51086667  0.09885237  0.48691008     0.22200
C134        C  0.56712442  0.04083652  0.49287865    -0.54000
C135        C  0.50514169  0.06057344  0.47092775     0.10000
C136        C  0.64280576  0.09370535  0.47089064    -0.53500
C137        C  0.58201168  0.11270541  0.45146940     0.10600
H138        H  0.60609759  0.07885530  0.63773848     0.15100
H139        H  0.46365865  0.11645961  0.46933257     0.00800
H140        H  0.57505080  0.01416480  0.48393355     0.15400
H141        H  0.69769796  0.10250072  0.45264522     0.15200
C142        C  0.25578492  0.33932696  0.35302622     0.30500
C143        C  0.37202190  0.36108231  0.26280450     0.30500
C144        C  0.24021148  0.34374700  0.27336084    -0.05700
C145        C  0.28843443  0.37803172  0.35775609    -0.06500
C146        C  0.32739534  0.31584320  0.35709000    -0.06400
C147        C  0.30002248  0.35399852  0.22908862    -0.05700
C148        C  0.34846643  0.38787917  0.31000297    -0.06500
C149        C  0.38581568  0.32987130  0.31661564    -0.06400
C150        C  0.28170489  0.35105424  0.16194872    -0.31700
N151        N  0.21232659  0.33871192  0.16227846     0.14800
C152        C  0.18498260  0.33636309  0.22949073    -0.31800
H153        H  0.12988534  0.32764409  0.24566338     0.16700
C154        C  0.37217750  0.42083061  0.31672262    -0.30700
N155        N  0.32935054  0.43382244  0.36553454     0.13500
C156        C  0.27775158  0.40844620  0.39063086    -0.30700
C157        C  0.44890099  0.32116172  0.35309652    -0.31000
N158        N  0.43487672  0.29556881  0.40634738     0.14000
H159        H  0.49844291  0.33627794  0.34593368     0.16600
C160        C  0.36098164  0.29206744  0.40837497    -0.31000
H161        H  0.33545585  0.27134458  0.44051078     0.16600
H162        H  0.23478680  0.41174874  0.42926594     0.16600
H163        H  0.31874346  0.35540147  0.11700311     0.16700
H164        H  0.41654081  0.43484092  0.28667229     0.16600
C165        C  0.09831910  0.28699371  0.05395531     0.87000
C166        C  0.08831819  0.26255723  0.12397890    -0.53300
C167        C  0.14994594  0.25812610  0.16183783     0.09900
C168        C  0.21629052  0.27724937  0.12834509     0.20900
C169        C  0.13214420  0.32086118  0.07350038    -0.54000
C170        C  0.19133062  0.31520203  0.11543504     0.10000
C171        C  0.16394863  0.26980533  0.01581324    -0.53500
C172        C  0.22688284  0.26466244  0.05563797     0.10600
H173        H  0.03636119  0.25049226  0.14307468     0.15100
H174        H  0.26384948  0.27278204  0.16388315     0.00800
H175        H  0.10864207  0.34680554  0.06033424     0.15400
H176        H  0.15969949  0.26084690  0.96573507     0.15200
C177        C  0.58342698  0.29329174  0.54103977     0.87000
C178        C  0.63302513  0.27264504  0.49390772    -0.53300
C179        C  0.59610408  0.24913658  0.46328041     0.09900
C180        C  0.51148347  0.24739531  0.48777504     0.20900
C181        C  0.52211248  0.30834745  0.49063915    -0.54000
C182        C  0.48414393  0.28467105  0.46315388     0.10000
C183        C  0.54546143  0.26667206  0.59724230    -0.53500
C184        C  0.50564250  0.24276048  0.57081936     0.10600
H185        H  0.68893499  0.27999367  0.47667971     0.15100
H186        H  0.47828390  0.22831934  0.46548522     0.00800
H187        H  0.51258110  0.33588451  0.47279811     0.15400
H188        H  0.54469508  0.26876302  0.65253105     0.15200
C189        C  0.42787394  0.20494722  0.07856290     0.30500
C190        C  0.29752517  0.24236446  0.04666119     0.30500
C191        C  0.42421586  0.24241007  0.09288870    -0.05700
C192        C  0.40638690  0.21092703  0.99813376    -0.06500
C193        C  0.35541075  0.18902334  0.11382910    -0.06400
C194        C  0.36084864  0.26119588  0.07382942    -0.05700
C195        C  0.33855481  0.22980402  0.98263134    -0.06500
C196        C  0.29126416  0.20821814  0.09819231    -0.06400
C197        C  0.37673441  0.29586691  0.06950263    -0.31700
N198        N  0.44597090  0.29869699  0.09165369     0.14800
C199        C  0.47621207  0.26618361  0.10351610    -0.31800
H200        H  0.53287829  0.25996072  0.11447763     0.16700
C201        C  0.33023703  0.23362036  0.91068271    -0.30700
N202        N  0.38980101  0.21879553  0.88093610     0.13500
C203        C  0.43581395  0.20466744  0.93329884    -0.30700
C204        C  0.23229490  0.18802938  0.12603963    -0.31000
N205        N  0.25744180  0.15816447  0.16463251     0.14000
H206        H  0.17505133  0.19426392  0.11511934     0.16600
C207        C  0.33154722  0.15686243  0.14830781    -0.31000
H208        H  0.36542276  0.13354631  0.15638942     0.16600
H209        H  0.48591741  0.19020254  0.92459525     0.16600
H210        H  0.34055975  0.31730420  0.05000915     0.16700
H211        H  0.28388868  0.24606013  0.88201395     0.16600
C212        C  0.44666190  0.21925015  0.61391109     0.30500
C213        C  0.33077699  0.17569158  0.65215269     0.30500
C214        C  0.45776956  0.18080056  0.60231289    -0.05700
C215        C  0.42455182  0.21414396  0.69497299    -0.06500
C216        C  0.37029249  0.23059000  0.58249673    -0.06400
C217        C  0.39827528  0.15945712  0.62084785    -0.05700
C218        C  0.36374698  0.19169041  0.71341531    -0.06500
C219        C  0.31368190  0.20746447  0.59996722    -0.06400
C220        C  0.42185473  0.12546226  0.62235916    -0.31700
N221        N  0.49393646  0.12450412  0.60289188     0.14800
C222        C  0.51755582  0.15796983  0.59740143    -0.31800
H223        H  0.57505437  0.16478685  0.59740534     0.16700
C224        C  0.34560003  0.19207847  0.78340854    -0.30700
N225        N  0.39394108  0.21230800  0.81028854     0.13500
C226        C  0.44213568  0.22619706  0.75743892    -0.30700
C227        C  0.24786739  0.22421805  0.58311071    -0.31000
N228        N  0.26087529  0.25703507  0.55310079     0.14000
H229        H  0.19438577  0.21430485  0.59892372     0.16600
C230        C  0.33428648  0.26242031  0.56145366    -0.31000
H231        H  0.36033612  0.28752161  0.55023957     0.16600
H232        H  0.48495728  0.24442192  0.76343744     0.16600
H233        H  0.39029803  0.10279571  0.64202996     0.16700
H234        H  0.29928728  0.17963890  0.81301827     0.16600
O235        O  0.88654444  0.43689033  0.94524476    -0.79600
O236        O  0.04312041  0.44150603  0.66250113    -0.79700
O237        O  0.03915490  0.42268782  0.87356634    -0.79700
O238        O  0.93857218  0.50086651  0.82758778    -0.79600
O239        O  0.06946969  0.39473408  0.78459175    -0.79700
O240        O  0.82643446  0.48465003  0.86385508    -0.79700
O241        O  0.03383730  0.48166086  0.72768090    -0.79600
O242        O  0.95187784  0.38919581  0.97774213    -0.79700
C243        C  0.92208401  0.41677551  0.99250058     1.10100
C244        C  0.05429193  0.47266972  0.67022386     1.09900
C245        C  0.08725686  0.40895028  0.83709859     1.10100
C246        C  0.88078657  0.50502829  0.86313917     1.10000
O247        O  0.78106024  0.43888300  0.76401857    -0.79600
O248        O  0.92022866  0.36616362  0.76675500    -0.79700
O249        O  0.83626301  0.38181282  0.89166396    -0.79700
O250        O  0.90846004  0.47378260  0.64276663    -0.79600
O251        O  0.90090457  0.41608693  0.65560698    -0.79700
O252        O  0.74999261  0.42170974  0.90620492    -0.79700
O253        O  0.81384342  0.49314946  0.73838598    -0.79600
O254        O  0.97566540  0.35875232  0.86524019    -0.79700
Co255      Co  0.83727419  0.43447100  0.84989437     1.51500
Co256      Co  0.98021906  0.40540908  0.72224250     1.51700
Co257      Co  0.93993929  0.40581715  0.88074590     1.51600
Co258      Co  0.92558627  0.48522124  0.73764605     1.51500
O259        O  0.92688577  0.43508633  0.78700400    -1.41600
C260        C  0.76322483  0.47034541  0.74526040     1.10000
C261        C  0.94210260  0.34608686  0.81956950     1.10100
C262        C  0.76979689  0.38994680  0.91076541     1.10000
C263        C  0.88805626  0.44621731  0.62231848     1.10000
C264        C  0.80080106  0.41655092  0.47544713    -0.27700
C265        C  0.72933021  0.41850952  0.50562575     0.05900
C266        C  0.71265181  0.44688082  0.54061200     0.25500
C267        C  0.77011317  0.46160895  0.57064344    -0.12200
C268        C  0.84216975  0.44942378  0.56171502    -0.26100
C269        C  0.85895186  0.43017576  0.50776317     0.36300
C270        C  0.69183039  0.38532614  0.53153533     0.05900
F271        F  0.64263796  0.45489903  0.56023235    -0.19900
H272        H  0.75686784  0.47806302  0.60929546     0.15700
F273        F  0.92952967  0.41968062  0.49551439    -0.23600
H274        H  0.81369814  0.39738143  0.44164013     0.17500
C275        C  0.73360291  0.35430772  0.55197889     0.25500
C276        C  0.69791280  0.32284829  0.56984243    -0.12200
C277        C  0.62080838  0.32217478  0.57000983    -0.26200
C278        C  0.58152459  0.35360891  0.57275887     0.36400
C279        C  0.61536614  0.38473514  0.54613696    -0.27800
F280        F  0.80856101  0.35387368  0.55321557    -0.19900
H281        H  0.73039575  0.29894080  0.57691647     0.15700
F282        F  0.50756949  0.35383325  0.58754051    -0.23700
H283        H  0.58078109  0.40776469  0.53511585     0.17600
C284        C  0.90566883  0.26905569  0.98555781    -0.27700
C285        C  0.86164200  0.29419603  0.01400460     0.05900
C286        C  0.89908499  0.31821848  0.04758103     0.25500
C287        C  0.97488170  0.31681977  0.05342257    -0.12200
C288        C  0.02024784  0.29266928  0.02441208    -0.26100
C289        C  0.98379727  0.26784788  0.99179453     0.36300
C290        C  0.77917043  0.29852065  0.00354642     0.05900
F291        F  0.86389168  0.34404718  0.07584861    -0.19900
H292        H  0.99642285  0.33414312  0.08607218     0.15700
F293        F  0.02292729  0.24164006  0.96849110    -0.23600
H294        H  0.87978162  0.24989334  0.95964836     0.17500
C295        C  0.75314183  0.30083611  0.93519508     0.25500
C296        C  0.72123475  0.33255540  0.90390061    -0.12200
C297        C  0.72127198  0.36096572  0.94059077    -0.26200
C298        C  0.71832762  0.35294050  0.01395269     0.36400
C299        C  0.73952580  0.31937304  0.04573751    -0.27800
F300        F  0.76572821  0.27465985  0.89745418    -0.19900
H301        H  0.70903540  0.33686399  0.84886830     0.15700
F302        F  0.71798583  0.37885871  0.05296107    -0.23700
H303        H  0.74731677  0.31505943  0.10181036     0.17600
C304        C  0.97707990  0.50626814  0.50514833    -0.27700
C305        C  0.94339173  0.02956431  0.56716382     0.05900
C306        C  0.97921127  0.04520173  0.61803352     0.25500
C307        C  0.03793930  0.02772219  0.65507159    -0.12200
C308        C  0.05963692  0.99420494  0.64298560    -0.26100
C309        C  0.03686587  0.48928039  0.54176038     0.36300
C310        C  0.86164363  0.03548891  0.55600612     0.05900
F311        F  0.95090594  0.07459976  0.63894676    -0.19900
H312        H  0.05571425  0.03722532  0.70142302     0.15700
F313        F  0.06166604  0.45845209  0.52468919    -0.23600
H314        H  0.95191463  0.49355567  0.46609563     0.17500
C315        C  0.82782067  0.03308391  0.49218320     0.25500
C316        C  0.75040245  0.03660981  0.48626170    -0.12200
C317        C  0.70414304  0.04379530  0.54285536    -0.26200
C318        C  0.73791734  0.04228961  0.60835191     0.36400
C319        C  0.81487712  0.03912965  0.61397158    -0.27800
F320        F  0.86944619  0.02921211  0.43432594    -0.19900
H321        H  0.72704398  0.03690774  0.43520688     0.15700
F322        F  0.69795468  0.04243384  0.66838761    -0.23700
H323        H  0.83769728  0.03829155  0.66531259     0.17600
C324        C  0.58061929  0.45329720  0.82326152    -0.27700
C325        C  0.58277721  0.47823855  0.86845791     0.05900
C326        C  0.62446968  0.50825256  0.84824318     0.25500
C327        C  0.67329661  0.51000178  0.79051492    -0.12200
C328        C  0.68532739  0.48061053  0.75741640    -0.26100
C329        C  0.63173070  0.45447665  0.76743187     0.36300
C330        C  0.56053121  0.46723599  0.94240846     0.05900
F331        F  0.62556616  0.53339201  0.88958915    -0.19900
H332        H  0.71093891  0.53139351  0.78077249     0.15700
F333        F  0.63829498  0.42665687  0.73301496    -0.23600
H334        H  0.54757424  0.43019789  0.83724832     0.17500
C335        C  0.48925203  0.45495952  0.95958635     0.25500
C336        C  0.47683703  0.43186878  0.02116225    -0.12200
C337        C  0.53579430  0.41961187  0.06547325    -0.26200
C338        C  0.60358354  0.43696114  0.05452184     0.36400
C339        C  0.61605335  0.46031835  0.99256621    -0.27800
F340        F  0.43373873  0.46239683  0.91353696    -0.19900
H341        H  0.42239960  0.42062839  0.03054767     0.15700
F342        F  0.65812323  0.43106243  0.10164917    -0.23700
H343        H  0.67107548  0.47057771  0.98100317     0.17600
C344        C  0.27755682  0.03364152  0.85562774    -0.27700
C345        C  0.21489494  0.01494349  0.87888896     0.05900
C346        C  0.14435736  0.02966693  0.86276549     0.25500
C347        C  0.13717710  0.05955127  0.81222019    -0.12200
C348        C  0.20091258  0.07471021  0.77886139    -0.26100
C349        C  0.27126523  0.06293568  0.80552347     0.36300
C350        C  0.22303178  0.97704810  0.88985933     0.05900
F351        F  0.08293132  0.01243280  0.88890164    -0.19900
H352        H  0.08274864  0.06873614  0.79541447     0.15700
F353        F  0.33537132  0.07667925  0.77594467    -0.23600
H354        H  0.33207125  0.02259672  0.86767636     0.17500
C355        C  0.20288824  0.95672055  0.95344089     0.25500
C356        C  0.17976820  0.92276607  0.95306154    -0.12200
C357        C  0.16843814  0.91173604  0.88809713    -0.26200
C358        C  0.20846783  0.92785398  0.82919669     0.36400
C359        C  0.23423573  0.96123950  0.82970873    -0.27800
F360        F  0.19616622  0.97094706  0.01306103    -0.19900
H361        H  0.15381163  0.90906794  0.00041545     0.15700
F362        F  0.20521123  0.91600325  0.76693232    -0.23700
H363        H  0.25238905  0.97647194  0.78056554     0.17600
C364        C  0.90734766  0.07071043  0.00508199    -0.27700
C365        C  0.85510796  0.09484518  0.97270914     0.05900
C366        C  0.82994788  0.09133550  0.90621018     0.25500
C367        C  0.84553021  0.06080812  0.87931977    -0.12200
C368        C  0.88534670  0.03380938  0.91875516    -0.26100
C369        C  0.92104385  0.03970002  0.97890112     0.36300
C370        C  0.80507208  0.11248771  0.01731316     0.05900
F371        F  0.78117086  0.11471961  0.87259468    -0.19900
H372        H  0.82343853  0.05755711  0.82947112     0.15700
F373        F  0.96254265  0.51367889  0.98316433    -0.23600
H374        H  0.92811218  0.07335691  0.05599140     0.17500
C375        C  0.76630988  0.09150377  0.07136339     0.25500
C376        C  0.70550032  0.10456746  0.10393172    -0.12200
C377        C  0.68013737  0.13890774  0.08319659    -0.26200
C378        C  0.72150359  0.16062972  0.03106672     0.36400
C379        C  0.78325791  0.14735718  0.99808125    -0.27800
F380        F  0.78388671  0.05724989  0.08983125    -0.19900
H381        H  0.68029807  0.08693327  0.14581269     0.15700
F382        F  0.70246628  0.19469777  0.01250656    -0.23700
H383        H  0.81238233  0.16381420  0.95604621     0.17600
C384        C  0.87960815  0.27709683  0.73800767    -0.27700
C385        C  0.95251707  0.27211620  0.71559735     0.05900
C386        C  0.00532346  0.26759240  0.76865728     0.25500
C387        C  0.99582494  0.28797953  0.82204676    -0.12200
C388        C  0.93158720  0.30884671  0.82203586    -0.26100
C389        C  0.86953024  0.29937358  0.78706372     0.36300
C390        C  0.97309831  0.29650008  0.65090547     0.05900
F391        F  0.07415597  0.25535811  0.75502244    -0.19900
H392        H  0.04377445  0.29350145  0.85056619     0.15700
F393        F  0.80752215  0.31947868  0.78237599    -0.23600
H394        H  0.83441812  0.27534361  0.70331213     0.17500
C395        C  0.93470956  0.29751508  0.58822255     0.25500
C396        C  0.95918837  0.31977425  0.52836397    -0.12200
C397        C  0.03129630  0.33275640  0.52845880    -0.26200
C398        C  0.05060140  0.34321908  0.59151468     0.36400
C399        C  0.02484975  0.32321559  0.65344861    -0.27800
F400        F  0.87784967  0.27584821  0.58344038    -0.19900
H401        H  0.93277490  0.31856111  0.47924592     0.15700
F402        F  0.10989177  0.36386111  0.59345085    -0.23700
H403        H  0.04912699  0.32726043  0.70193196     0.17600
C404        C  0.98400503  0.01362921  0.24967186    -0.27700
C405        C  0.01064239  0.99930380  0.19164362     0.05900
C406        C  0.06571197  0.01661931  0.14768593     0.25500
C407        C  0.09662837  0.04663770  0.16372822    -0.12200
C408        C  0.07242385  0.06097384  0.22310663    -0.26100
C409        C  0.01563663  0.04366172  0.26654526     0.36300
C410        C  0.98112223  0.96663116  0.17520457     0.05900
F411        F  0.09115953  0.00402834  0.08968340    -0.19900
H412        H  0.14288489  0.05729220  0.13123330     0.15700
F413        F  0.99396706  0.05391426  0.32798762    -0.23600
H414        H  0.94132670  0.00054188  0.28392514     0.17500
C415        C  0.02997270  0.93987638  0.16077124     0.25500
C416        C  0.00680858  0.91557027  0.12043235    -0.12200
C417        C  0.93501913  0.91799378  0.09478060    -0.26200
C418        C  0.88442275  0.45286276  0.08340254     0.36400
C419        C  0.90609477  0.96501712  0.16018269    -0.27800
F420        F  0.10218177  0.93996251  0.17818739    -0.19900
H421        H  0.04751170  0.89821581  0.10159311     0.15700
F422        F  0.81658115  0.45877155  0.05518015    -0.23700
H423        H  0.86744435  0.98503414  0.17217095     0.17600
C424        C  0.11846603  0.58723286  0.25054526     0.87000
C425        C  0.16065390  0.61282080  0.19407461    -0.53300
C426        C  0.21168683  0.63238458  0.21916298     0.09900
C427        C  0.21054355  0.62605797  0.30207492     0.20900
C428        C  0.17878093  0.56689861  0.29489728    -0.54000
C429        C  0.22990151  0.58614102  0.32069115     0.10000
C430        C  0.07923559  0.61102048  0.29795010    -0.53500
C431        C  0.12528291  0.63179586  0.32698310     0.10600
H432        H  0.15114277  0.61555191  0.13832661     0.15100
H433        H  0.24939923  0.64270218  0.32455630     0.00800
H434        H  0.18027847  0.53902240  0.30295513     0.15400
H435        H  0.01960074  0.61316644  0.30370755     0.15200
C436        C  0.09666641  0.66415110  0.36266754     0.30500
C437        C  0.09785288  0.72691941  0.41412443     0.30500
C438        C  0.14624623  0.69233042  0.32699226    -0.05700
C439        C  0.01954047  0.68509722  0.35782931    -0.06500
C440        C  0.11225560  0.66202998  0.44140999    -0.06400
C441        C  0.15239940  0.72259443  0.35516809    -0.05700
C442        C  0.02042862  0.71739137  0.38421517    -0.06500
C443        C  0.11236416  0.69368637  0.46771002    -0.06400
C444        C  0.17163762  0.74801539  0.30070255    -0.31700
N445        N  0.17001767  0.73515252  0.24078371     0.14800
C446        C  0.14928091  0.70216050  0.25634918    -0.31800
H447        H  0.12108142  0.68839142  0.22085300     0.16700
C448        C  0.94641198  0.72957347  0.38419864    -0.30700
N449        N  0.90074229  0.70712292  0.35811700     0.13500
C450        C  0.94498109  0.68006547  0.34198737    -0.30700
C451        C  0.09521028  0.68521758  0.53878728    -0.31000
N452        N  0.09395302  0.65008407  0.55929414     0.14000
H453        H  0.08213916  0.70383745  0.57358139     0.16600
C454        C  0.09490030  0.63676761  0.49831460    -0.31000
H455        H  0.08536818  0.60964086  0.49574042     0.16600
H456        H  0.92415724  0.65741701  0.32333585     0.16600
H457        H  0.17096683  0.77507724  0.30362904     0.16700
H458        H  0.92688228  0.75288404  0.40327404     0.16600
C459        C  0.09584825  0.80991728  0.50746773     0.87000
C460        C  0.15824330  0.79092958  0.55355422    -0.53300
C461        C  0.21113101  0.77540716  0.51806231     0.09900
C462        C  0.19585977  0.77944257  0.43903680     0.20900
C463        C  0.13683168  0.83579878  0.45053868    -0.54000
C464        C  0.19141776  0.82106792  0.41382718     0.10000
C465        C  0.06563563  0.78040296  0.47078956    -0.53500
C466        C  0.11613252  0.76302379  0.43711431     0.10600
H467        H  0.15836013  0.78757643  0.61032138     0.15100
H468        H  0.23908435  0.76560346  0.41176755     0.00800
H469        H  0.12695410  0.86370530  0.44377494     0.15400
H470        H  0.01032837  0.77031930  0.47811582     0.15200
C471        C  0.30092601  0.56978860  0.35862212     0.30500
C472        C  0.42855958  0.54939551  0.43258809     0.30500
C473        C  0.30052130  0.57510808  0.43397450    -0.05700
C474        C  0.32284371  0.52861443  0.36715858    -0.06500
C475        C  0.37358217  0.58798508  0.33080194    -0.06400
C476        C  0.36140413  0.56300374  0.47188742    -0.05700
C477        C  0.38863980  0.51843805  0.40535820    -0.06500
C478        C  0.43700095  0.57473726  0.36291204    -0.06400
C479        C  0.34399295  0.56529129  0.54092638    -0.31700
N480        N  0.27811613  0.58224622  0.54374477     0.14800
C481        C  0.25099547  0.58785795  0.47840221    -0.31800
H482        H  0.19938345  0.59992903  0.46335567     0.16700
C483        C  0.40204829  0.98481118  0.40881408    -0.30700
N484        N  0.34277342  0.97147513  0.37927600     0.13500
C485        C  0.29996449  0.99929599  0.35090723    -0.30700
C486        C  0.49599572  0.59146818  0.32540256    -0.31000
N487        N  0.47074187  0.61908074  0.27947815     0.14000
H488        H  0.55359345  0.58422319  0.33285711     0.16600
C489        C  0.39582283  0.61852870  0.28858704    -0.31000
H490        H  0.36078705  0.64063114  0.27434474     0.16600
H491        H  0.25178184  0.99590147  0.32148634     0.16600
H492        H  0.37797939  0.55587494  0.58507408     0.16700
H493        H  0.44658264  0.96912796  0.43413349     0.16600
C494        C  0.61383542  0.65046183  0.13271123     0.87000
C495        C  0.64634930  0.67689990  0.17387441    -0.53300
C496        C  0.59722822  0.69278059  0.21217629     0.09900
C497        C  0.51357087  0.68073699  0.20183300     0.20900
C498        C  0.56864731  0.62511325  0.18743380    -0.54000
C499        C  0.51548142  0.64030637  0.22418697     0.10000
C500        C  0.55388528  0.66987335  0.08520677    -0.53500
C501        C  0.49887544  0.68521084  0.12001522     0.10600
H502        H  0.70552075  0.67998504  0.17792759     0.15100
H503        H  0.47104766  0.69375385  0.23176745     0.00800
H504        H  0.57437580  0.59712020  0.19607478     0.15400
H505        H  0.55381897  0.66991590  0.02919244     0.15200
C506        C  0.18995046  0.59620089  0.71836223     0.87000
C507        C  0.12124946  0.61329101  0.67729310    -0.53300
C508        C  0.14197034  0.63386991  0.61449134     0.09900
C509        C  0.22577266  0.63426039  0.60004653     0.20900
C510        C  0.23017141  0.57623427  0.66485141    -0.54000
C511        C  0.24689650  0.59606633  0.60288425     0.10000
C512        C  0.23790583  0.62721495  0.72578747    -0.53500
C513        C  0.26021472  0.64596101  0.66490564     0.10600
H514        H  0.06405797  0.60891308  0.69429091     0.15100
H515        H  0.24241193  0.64990561  0.54913421     0.00800
H516        H  0.24184099  0.54841582  0.67442249     0.15400
H517        H  0.25842416  0.63142187  0.77551878     0.15200
C518        C  0.61914738  0.73526006  0.40121358     0.30500
C519        C  0.62395808  0.70932619  0.27632291     0.30500
C520        C  0.59588726  0.76052809  0.33590615    -0.05700
C521        C  0.69994778  0.72396608  0.37684232    -0.06500
C522        C  0.57596095  0.70264017  0.39783595    -0.06400
C523        C  0.59827870  0.74728354  0.27286776    -0.05700
C524        C  0.70285022  0.71031253  0.31218595    -0.06500
C525        C  0.58151792  0.68908686  0.33633781    -0.06400
C526        C  0.61153481  0.77547682  0.22108465    -0.31700
N527        N  0.60798886  0.80578758  0.24728214     0.14800
C528        C  0.60702428  0.79605339  0.31791129    -0.31800
H529        H  0.61463643  0.81385863  0.35480777     0.16700
C530        C  0.77826280  0.70191447  0.30052724    -0.30700
N531        N  0.82091376  0.71046262  0.35314783     0.13500
C532        C  0.77335095  0.72399051  0.39927059    -0.30700
C533        C  0.58436575  0.65358940  0.35508921    -0.31000
N534        N  0.56811566  0.64529206  0.42314335     0.14000
H535        H  0.60960789  0.63565474  0.32381025     0.16600
C536        C  0.56830015  0.67489070  0.45035542    -0.31000
H537        H  0.57933754  0.67644903  0.50313063     0.16600
H538        H  0.79059005  0.73324616  0.44612606     0.16600
H539        H  0.62789941  0.77405653  0.16749299     0.16700
H540        H  0.80054828  0.69111228  0.25592557     0.16600
C541        C  0.52177651  0.88427047  0.12836069     0.87000
C542        C  0.49383793  0.85651463  0.08639683    -0.53300
C543        C  0.47229324  0.82669625  0.12676896     0.09900
C544        C  0.47902531  0.82692808  0.20494392     0.20900
C545        C  0.45916156  0.88970174  0.18087276    -0.54000
C546        C  0.43729853  0.86018226  0.22217331     0.10000
C547        C  0.58442853  0.86433674  0.17414105    -0.53500
C548        C  0.56084859  0.83370505  0.21349984     0.10600
H549        H  0.49247989  0.85994698  0.02958068     0.15100
H550        H  0.46033770  0.80185198  0.23502408     0.00800
H551        H  0.43261860  0.91476773  0.18308207     0.15400
H552        H  0.64130742  0.87201563  0.17412083     0.15200
C553        C  0.62091226  0.55876291  0.52663599     0.87000
C554        C  0.57924384  0.57071110  0.59147624    -0.53300
C555        C  0.51762770  0.59074360  0.57497707     0.09900
C556        C  0.49990510  0.59457826  0.49739506     0.22200
C557        C  0.56129036  0.53827360  0.49201603    -0.54000
C558        C  0.49650655  0.55701476  0.47664669     0.10000
C559        C  0.63114142  0.59277999  0.47552298    -0.53500
C560        C  0.56854583  0.61110907  0.46145555     0.10600
H561        H  0.59654854  0.56632371  0.64499564     0.15100
H562        H  0.45087196  0.61170647  0.48398450     0.00800
H563        H  0.57125276  0.51267167  0.47778488     0.15400
H564        H  0.68441996  0.60276872  0.45478593     0.15200
C565        C  0.25267849  0.84260533  0.36421907     0.30500
C566        C  0.37228403  0.85852612  0.27419423     0.30500
C567        C  0.23910862  0.84436028  0.28433908    -0.05700
C568        C  0.28865325  0.88064616  0.36501061    -0.06500
C569        C  0.32240182  0.81957661  0.37541051    -0.06400
C570        C  0.30004176  0.85281312  0.24036560    -0.05700
C571        C  0.35096553  0.88753568  0.31841700    -0.06500
C572        C  0.38102860  0.82671023  0.32912304    -0.06400
C573        C  0.28259841  0.84903888  0.17362267    -0.31700
N574        N  0.21293933  0.83724187  0.17374972     0.14800
C575        C  0.18466448  0.83576884  0.24064838    -0.31800
H576        H  0.13039949  0.82601857  0.25749860     0.16700
C577        C  0.37754151  0.92047652  0.32249333    -0.30700
N578        N  0.33438138  0.93589414  0.36787507     0.13500
C579        C  0.27974349  0.91227357  0.39369940    -0.30700
C580        C  0.44371798  0.81449835  0.36393380    -0.31000
N581        N  0.42613574  0.79698832  0.42740056     0.14000
H582        H  0.49651597  0.82560843  0.35077776     0.16600
C583        C  0.35432464  0.80577010  0.43732120    -0.31000
H584        H  0.33059626  0.81173417  0.48546245     0.16600
H585        H  0.23592809  0.91761035  0.43000484     0.16600
H586        H  0.32070956  0.85184700  0.12945940     0.16700
H587        H  0.42409628  0.93285117  0.29295490     0.16600
C588        C  0.09759938  0.78326122  0.07260917     0.87000
C589        C  0.09603179  0.75857186  0.14232131    -0.53300
C590        C  0.16073403  0.75581297  0.17488746     0.09900
C591        C  0.22225311  0.77667924  0.13673340     0.20900
C592        C  0.12938399  0.81793700  0.08955515    -0.54000
C593        C  0.19224619  0.81386597  0.12663524     0.10000
C594        C  0.16131785  0.76755390  0.02917458    -0.53500
C595        C  0.22813904  0.76410359  0.06349836     0.10600
H596        H  0.04712028  0.74494010  0.16539261     0.15100
H597        H  0.27247467  0.77342264  0.16891525     0.00800
H598        H  0.10046808  0.84283929  0.08028708     0.15400
H599        H  0.15317470  0.75765299  0.98060932     0.15200
C600        C  0.58136277  0.78768082  0.55733489     0.87000
C601        C  0.62945512  0.76928330  0.50518944    -0.53300
C602        C  0.59137011  0.74756051  0.47116731     0.09900
C603        C  0.50687479  0.74561916  0.49649553     0.20900
C604        C  0.51933252  0.80548452  0.51048909    -0.54000
C605        C  0.47938579  0.78383919  0.47983811     0.10000
C606        C  0.54406102  0.75897410  0.60972217    -0.53500
C607        C  0.50343337  0.73655369  0.57974486     0.10600
H608        H  0.68610003  0.77608985  0.48975341     0.15100
H609        H  0.47240191  0.72842874  0.47047275     0.00800
H610        H  0.51031940  0.83338542  0.49761398     0.15400
H611        H  0.54524385  0.75843118  0.66585183     0.15200
C612        C  0.42751699  0.70309463  0.08468495     0.30500
C613        C  0.29758133  0.74112411  0.05217217     0.30500
C614        C  0.42556826  0.74110714  0.09548038    -0.05700
C615        C  0.40425303  0.70771197  0.00437199    -0.06500
C616        C  0.35541898  0.68839273  0.12201363    -0.06400
C617        C  0.36294502  0.76014289  0.07545967    -0.05700
C618        C  0.33652337  0.72690449  0.98882323    -0.06500
C619        C  0.29151337  0.70766672  0.10582286    -0.06400
C620        C  0.37844763  0.79471252  0.07391116    -0.31700
N621        N  0.44651119  0.79701263  0.09925028     0.14800
C622        C  0.47645910  0.76439304  0.11046990    -0.31800
H623        H  0.53174047  0.75766186  0.12541407     0.16700
C624        C  0.32654996  0.72965974  0.91724255    -0.30700
N625        N  0.38480370  0.71395981  0.88738156     0.13500
C626        C  0.43189012  0.70034901  0.93948602    -0.30700
C627        C  0.23246052  0.68711380  0.13206946    -0.31000
N628        N  0.25726785  0.65748546  0.17173669     0.14000
H629        H  0.17525378  0.69309956  0.12011372     0.16600
C630        C  0.33134865  0.65617727  0.15574325    -0.31000
H631        H  0.36506514  0.63279285  0.16317907     0.16600
H632        H  0.48181372  0.68571507  0.93080094     0.16600
H633        H  0.34198427  0.81636652  0.05627815     0.16700
H634        H  0.28019688  0.74224886  0.88880970     0.16600
C635        C  0.44429103  0.71192563  0.62122291     0.30500
C636        C  0.32553151  0.66984989  0.65849391     0.30500
C637        C  0.45557915  0.67276952  0.61479170    -0.05700
C638        C  0.41792753  0.70910024  0.70101373    -0.06500
C639        C  0.37065748  0.72204807  0.58442909    -0.06400
C640        C  0.39457470  0.65214047  0.63306403    -0.05700
C641        C  0.35569123  0.68757904  0.71902977    -0.06500
C642        C  0.31220509  0.70000672  0.60141402    -0.06400
C643        C  0.41599458  0.61790914  0.63498529    -0.31700
N644        N  0.48847952  0.61602113  0.61705392     0.14800
C645        C  0.51413966  0.64914719  0.61142904    -0.31800
H646        H  0.57224392  0.65523458  0.60818058     0.16700
C647        C  0.33781708  0.68821020  0.78923610    -0.30700
N648        N  0.38782179  0.70754694  0.81651566     0.13500
C649        C  0.43673967  0.72067313  0.76372461    -0.30700
C650        C  0.24797734  0.71819872  0.58348064    -0.31000
N651        N  0.26421932  0.75060785  0.55318411     0.14000
H652        H  0.19393315  0.71018565  0.60197691     0.16600
C653        C  0.33766108  0.75402136  0.56312387    -0.31000
H654        H  0.36401827  0.77784169  0.56922133     0.16600
H655        H  0.48193719  0.73750424  0.77040505     0.16600
H656        H  0.38190926  0.59572998  0.65178280     0.16700
H657        H  0.29147190  0.67601318  0.81914076     0.16600
O658        O  0.89587983  0.93046347  0.97857365    -0.79600
O659        O  0.05456772  0.93507728  0.69705665    -0.79700
O660        O  0.04229389  0.91329896  0.91476636    -0.79700
O661        O  0.95006423  0.99380552  0.86218688    -0.79600
O662        O  0.07652482  0.88852304  0.82214169    -0.79700
O663        O  0.83662060  0.98018816  0.89739034    -0.79700
O664        O  0.04408663  0.97372051  0.76446414    -0.79600
O665        O  0.94645481  0.87892336  0.01154104    -0.79700
C666        C  0.92304870  0.90760647  0.02664646     1.10100
C667        C  0.06355217  0.96624546  0.70577974     1.09900
C668        C  0.09217292  0.90278700  0.87536360     1.10100
C669        C  0.89170158  0.00037865  0.89442416     1.10000
O670        O  0.78902238  0.93455818  0.79832043    -0.79600
O671        O  0.92833991  0.85975275  0.79824620    -0.79700
O672        O  0.83813728  0.87597891  0.91597135    -0.79700
O673        O  0.91769728  0.96739621  0.67733144    -0.79600
O674        O  0.91279629  0.90970186  0.68776772    -0.79700
O675        O  0.75864354  0.91690271  0.94046311    -0.79700
O676        O  0.82575229  0.98819795  0.77168719    -0.79600
O677        O  0.97970064  0.85102792  0.89844410    -0.79700
Co678      Co  0.84589735  0.92952822  0.88388620     1.51500
Co679      Co  0.99002228  0.89904362  0.75639640     1.51700
Co680      Co  0.94248577  0.89769481  0.91414030     1.51600
Co681      Co  0.93644179  0.97875623  0.77224439     1.51500
O682        O  0.93558204  0.92871343  0.82078022    -1.41600
C683        C  0.77385976  0.96616961  0.77776263     1.10000
C684        C  0.94847039  0.83902806  0.85075943     1.10100
C685        C  0.77440086  0.88492418  0.93991155     1.10000
C686        C  0.89847503  0.93991688  0.65569995     1.10000
C687        C  0.80647045  0.90741996  0.51600231    -0.27700
C688        C  0.73658132  0.90911800  0.54946346     0.05900
C689        C  0.72095668  0.93754647  0.58472614     0.25500
C690        C  0.77963991  0.95521595  0.60608215    -0.12200
C691        C  0.85159802  0.94318277  0.59546366    -0.26100
C692        C  0.86589003  0.92242439  0.54354713     0.36300
C693        C  0.69623135  0.87627591  0.57025262     0.05900
F694        F  0.65275464  0.94385609  0.61136253    -0.19900
H695        H  0.76810667  0.97269695  0.64308026     0.15700
F696        F  0.93584492  0.91154305  0.52986740    -0.23600
H697        H  0.81800824  0.88815740  0.48209768     0.17500
C698        C  0.73562961  0.84415390  0.58366890     0.25500
C699        C  0.69767206  0.81315396  0.59326155    -0.12200
C700        C  0.62058038  0.81393239  0.59221106    -0.26200
C701        C  0.58326198  0.84499011  0.60220976     0.36400
C702        C  0.61965375  0.87628415  0.58427494    -0.27800
F703        F  0.81055029  0.84236078  0.58509196    -0.19900
H704        H  0.72849263  0.78890588  0.59485985     0.15700
F705        F  0.50925472  0.84555078  0.61668143    -0.23700
H706        H  0.58674979  0.89994985  0.57851120     0.17600
C707        C  0.90113778  0.76388486  0.01553656    -0.27700
C708        C  0.85737471  0.78631522  0.05187920     0.05900
C709        C  0.89553785  0.80656728  0.09364056     0.25500
C710        C  0.97176245  0.80689932  0.09307785    -0.12200
C711        C  0.01626262  0.78709246  0.05249283    -0.26100
C712        C  0.97939812  0.76350950  0.01754507     0.36300
C713        C  0.77573112  0.79306837  0.03856345     0.05900
F714        F  0.86120047  0.82722113  0.13545290    -0.19900
H715        H  0.99569610  0.82179995  0.12933694     0.15700
F716        F  0.01831527  0.73914457  0.98804525    -0.23600
H717        H  0.87528393  0.74620723  0.98608849     0.17500
C718        C  0.75187117  0.79544825  0.96924472     0.25500
C719        C  0.72402514  0.82758765  0.93583682    -0.12200
C720        C  0.72586344  0.85644808  0.97119843    -0.26200
C721        C  0.72293419  0.84956864  0.04457669     0.36400
C722        C  0.73754085  0.81561192  0.07815881    -0.27800
F723        F  0.76481719  0.76921437  0.93170633    -0.19900
H724        H  0.71523262  0.83159392  0.88012882     0.15700
F725        F  0.72923790  0.87600739  0.08170114    -0.23700
H726        H  0.74045472  0.81115220  0.13467812     0.17600
C727        C  0.98125454  0.00200274  0.54123242    -0.27700
C728        C  0.94215805  0.53496071  0.52939050     0.05900
C729        C  0.98267133  0.55206425  0.57511310     0.25500
C730        C  0.03964432  0.53408195  0.61392156    -0.12200
C731        C  0.05667706  0.49954253  0.60566889    -0.26100
C732        C  0.04087155  0.98485722  0.57802005     0.36300
C733        C  0.85919628  0.53941072  0.52727221     0.05900
F734        F  0.95890842  0.58322193  0.59135703    -0.19900
H735        H  0.05932233  0.54443301  0.65874883     0.15700
F736        F  0.06721835  0.95468060  0.55904642    -0.23600
H737        H  0.95840184  0.99008338  0.49985628     0.17500
C738        C  0.81635152  0.53312149  0.47079894     0.25500
C739        C  0.73830779  0.53458490  0.47561425    -0.12200
C740        C  0.70015036  0.54349346  0.53565975    -0.26200
C741        C  0.74426798  0.54891322  0.59230517     0.36400
C742        C  0.82108949  0.54604156  0.58827927    -0.27800
F743        F  0.84924270  0.52677179  0.41002135    -0.19900
H744        H  0.70748996  0.53149432  0.42983085     0.15700
F745        F  0.71596458  0.55887547  0.65149042    -0.23700
H746        H  0.85086738  0.54912363  0.63460318     0.17600
C747        C  0.58377125  0.95384105  0.84116594    -0.27700
C748        C  0.58386546  0.97923154  0.88549290     0.05900
C749        C  0.62895975  0.00828644  0.86757272     0.25500
C750        C  0.68373082  0.00799706  0.81533024    -0.12200
C751        C  0.69632941  0.97783893  0.78474260    -0.26100
C752        C  0.64039869  0.95291796  0.79095858     0.36300
C753        C  0.55996347  0.96812382  0.95887752     0.05900
F754        F  0.62803735  0.03395347  0.90775360    -0.19900
H755        H  0.72388010  0.02842794  0.80853667     0.15700
F756        F  0.64873856  0.92413976  0.75963259    -0.23600
H757        H  0.54831742  0.93146268  0.85335502     0.17500
C758        C  0.48881963  0.95530085  0.97429896     0.25500
C759        C  0.47633574  0.93086611  0.03396706    -0.12200
C760        C  0.53502740  0.91805253  0.07821702    -0.26200
C761        C  0.60241057  0.93580054  0.06932486     0.36400
C762        C  0.61492938  0.96042467  0.00937720    -0.27800
F763        F  0.43392803  0.96334610  0.92775679    -0.19900
H764        H  0.42213358  0.91927259  0.04186548     0.15700
F765        F  0.65654887  0.92921056  0.11662337    -0.23700
H766        H  0.66994440  0.97091258  0.99917577     0.17600
C767        C  0.26325847  0.53217252  0.86935757    -0.27700
C768        C  0.20296424  0.51069843  0.88465553     0.05900
C769        C  0.13195217  0.52349803  0.86450035     0.25500
C770        C  0.12424895  0.55400784  0.81551159    -0.12200
C771        C  0.18775428  0.57193073  0.78829391    -0.26100
C772        C  0.25699056  0.56167309  0.81966320     0.36300
C773        C  0.21783890  0.47356177  0.88476664     0.05900
F774        F  0.07234087  0.50316056  0.88229407    -0.19900
H775        H  0.07064092  0.56106677  0.79361045     0.15700
F776        F  0.32163720  0.57652110  0.79425679    -0.23600
H777        H  0.31810053  0.52258905  0.88451002     0.17500
C778        C  0.19455279  0.44848040  0.94055762     0.25500
C779        C  0.17380507  0.41599953  0.92629619    -0.12200
C780        C  0.16450099  0.41204468  0.85579921    -0.26200
C781        C  0.20820459  0.43210647  0.80444811     0.36400
C782        C  0.23439011  0.46352582  0.81905047    -0.27800
F783        F  0.18089502  0.45701173  0.00518517    -0.19900
H784        H  0.14509790  0.39884961  0.96753859     0.15700
F785        F  0.20695967  0.42691632  0.73665769    -0.23700
H786        H  0.25503185  0.48236779  0.77586206     0.17600
C787        C  0.89381650  0.56524248  0.99544911    -0.27700
C788        C  0.83706173  0.58912792  0.97227809     0.05900
C789        C  0.80529538  0.58845965  0.90715854     0.25500
C790        C  0.82422621  0.56191601  0.86962183    -0.12200
C791        C  0.87355869  0.53563446  0.89705345    -0.26100
C792        C  0.91210290  0.53835696  0.95772581     0.36300
C793        C  0.79519268  0.60678728  0.02247932     0.05900
F794        F  0.74904822  0.61062807  0.88432632    -0.19900
H795        H  0.79770982  0.56099061  0.82070288     0.15700
F796        F  0.96318035  0.01431598  0.01534703    -0.23600
H797        H  0.91846277  0.56545135  0.04581600     0.17500
C798        C  0.75846894  0.58609908  0.07819625     0.25500
C799        C  0.70042926  0.59991680  0.11375117    -0.12200
C800        C  0.67657391  0.63464026  0.09389289    -0.26200
C801        C  0.71785692  0.65608922  0.04145965     0.36400
C802        C  0.77652055  0.64213762  0.00589054    -0.27800
F803        F  0.77439524  0.55156757  0.09453629    -0.19900
H804        H  0.67546451  0.58260582  0.15638975     0.15700
F805        F  0.70083105  0.69045152  0.02411586    -0.23700
H806        H  0.80461205  0.65834899  0.96279651     0.17600
C807        C  0.88782729  0.77168897  0.76408213    -0.27700
C808        C  0.96097495  0.76648946  0.74214192     0.05900
C809        C  0.01389738  0.76197803  0.79504511     0.25500
C810        C  0.00387269  0.78178190  0.84916639    -0.12200
C811        C  0.93889982  0.80195160  0.85077235    -0.26100
C812        C  0.87702437  0.79263217  0.81551129     0.36300
C813        C  0.98228121  0.78960555  0.67612694     0.05900
F814        F  0.08310361  0.75027985  0.78106373    -0.19900
H815        H  0.05174091  0.78739385  0.87771107     0.15700
F816        F  0.81378115  0.81186094  0.81380790    -0.23600
H817        H  0.84278160  0.77053977  0.72893790     0.17500
C818        C  0.94277199  0.79013830  0.61429751     0.25500
C819        C  0.96517781  0.81237223  0.55383509    -0.12200
C820        C  0.03680948  0.82603427  0.55150439    -0.26200
C821        C  0.06019246  0.83556919  0.61421919     0.36400
C822        C  0.03536695  0.81590991  0.67686302    -0.27800
F823        F  0.88616013  0.76813676  0.61096400    -0.19900
H824        H  0.93631085  0.81148206  0.50586568     0.15700
F825        F  0.12102353  0.85544423  0.61445679    -0.23700
H826        H  0.06104233  0.81996874  0.72472385     0.17600
C827        C  0.98395412  0.51326577  0.23994073    -0.27700
C828        C  0.01164456  0.50119921  0.17951518     0.05900
C829        C  0.06795264  0.51947227  0.13922167     0.25500
C830        C  0.09795825  0.54855472  0.16020426    -0.12200
C831        C  0.07135859  0.56123821  0.22091752    -0.26100
C832        C  0.01451006  0.54256106  0.26154336     0.36300
C833        C  0.97975150  0.47103838  0.15444163     0.05900
F834        F  0.09461962  0.50901743  0.07932791    -0.19900
H835        H  0.14508237  0.55985253  0.12995725     0.15700
F836        F  0.99120569  0.55115857  0.32402175    -0.23600
H837        H  0.94030698  0.49935131  0.27147370     0.17500
C838        C  0.02606404  0.44370142  0.13833829     0.25500
C839        C  0.00317725  0.42254257  0.09119724    -0.12200
C840        C  0.93437490  0.42878026  0.05955724    -0.26200
C841        C  0.88289116  0.94054522  0.12027149     0.36400
C842        C  0.90709781  0.47376137  0.13096022    -0.27800
F843        F  0.09621735  0.44007115  0.16201817    -0.19900
H844        H  0.04227012  0.40401992  0.07384261     0.15700
F845        F  0.81210464  0.94208824  0.09829617    -0.23700
H846        H  0.87077904  0.49459643  0.14316597     0.17600
loop_ 
_geom_bond_atom_site_label_1 
_geom_bond_atom_site_label_2 
_geom_bond_distance 
_geom_bond_site_symmetry_2 
_ccdc_geom_bond_type 
C1            C2   1.554       .  S
C1            C7   1.541       .  S
C1            C5   1.538       .  S
C1          C408   1.522       .  S
C2            H9   1.085       .  S
C2            C3   1.360       .  D
C3            C4   1.580       .  S
C3          N205   1.477       .  S
C4            C8   1.625       .  S
C4            C6   1.579       .  S
C4           H10   1.108       .  S
C5           H11   1.071       .  S
C5            C6   1.358       .  D
C6           C48   1.582       .  S
C7           H12   1.083       .  S
C7            C8   1.354       .  D
C8           C13   1.587       .  S
C13          C15   1.498       .  S
C13          C17   1.547       .  S
C13          C16   1.602       .  S
C14          C43   1.573       .  S
C14          C18   1.514       .  S
C14          C20   1.537       .  S
C14          C19   1.593       .  S
C15          C23   1.370       .  A
C15          C18   1.381       .  A
C16          C27   1.415   1_455  A
C16          C19   1.429       .  A
C17          C31   1.393       .  A
C17          C20   1.400       .  A
C18          C21   1.365       .  A
C19          C25   1.402   1_455  A
C20          C28   1.387       .  A
C21          N22   1.335       .  A
C21          H34   1.057       .  S
N22         C167   1.415       .  S
N22          C23   1.333       .  A
C23          H24   1.080       .  S
C25          N26   1.370       .  A
C25          H35   1.080       .  S
N26          C27   1.379       .  A
N26         N108   1.445       .  S
C27          H33   1.081       .  S
C28          N29   1.360       .  A
C28          H30   1.081       .  S
N29          C85   1.452       .  S
N29          C31   1.360       .  A
C31          H32   1.083       .  S
C36          C37   1.563       .  S
C36          C42   1.555       .  S
C36          C40   1.550       .  S
C36         C397   1.536       .  S
C37          H44   1.084       .  S
C37          C38   1.351       .  D
C38          C39   1.550       .  S
C38         N228   1.454       .  S
C39          C43   1.578       .  S
C39          C41   1.600       .  S
C39          H45   1.099       .  S
C40          H46   1.085       .  S
C40          C41   1.370       .  D
C41         C142   1.590       .  S
C42          H47   1.078       .  S
C42          C43   1.337       .  D
C48          C50   1.499       .  S
C48          C52   1.546       .  S
C48          C51   1.627       .  S
C49         C135   1.585       .  S
C49          C53   1.537       .  S
C49          C55   1.550       .  S
C49          C54   1.584       .  S
C50          C58   1.358       .  A
C50          C53   1.376       .  A
C51          C54   1.437       .  A
C51         C485   1.420   1_545  A
C52          C66   1.389       .  A
C52          C55   1.380       .  A
C53          C56   1.373       .  A
C54         C483   1.411   1_545  A
C55          C63   1.385       .  A
C56          N57   1.352       .  A
C56          H69   1.079       .  S
N57          C88   1.428       .  S
N57          C58   1.350       .  A
C58          H59   1.062       .  S
C60         C477   1.411       .  A
C60          N61   1.376       .  A
C60          H70   1.082       .  S
N61          C62   1.372       .  A
N61         N155   1.447       .  S
C62         C474   1.421       .  A
C62          H68   1.076       .  S
C63          N64   1.363       .  A
C63          H65   1.081       .  S
N64          C76   1.473       .  S
N64          C66   1.360       .  A
C66          H67   1.065       .  S
C71          C72   1.531       .  S
C71          C77   1.546       .  S
C71          C75   1.558       .  S
C71         C377   1.518       .  S
C72          H79   1.085       .  S
C72          C73   1.342       .  D
C73          C74   1.615       .  S
C73          C96   1.571       .  S
C74          C78   1.589       .  S
C74          C76   1.558       .  S
C74          H80   1.110       .  S
C75          H81   1.079       .  S
C75          C76   1.359       .  D
C77          H82   1.081       .  S
C77          C78   1.366       .  D
C78         C189   1.570       .  S
C83          C84   1.573       .  S
C83          C89   1.527       .  S
C83          C87   1.540       .  S
C83         C348   1.517       .  S
C84          H91   1.084       .  S
C84          C85   1.392       .  D
C85          C86   1.530       .  S
C86          C90   1.549       .  S
C86          C88   1.520       .  S
C86          H92   1.111       .  S
C87          H93   1.087       .  S
C87          C88   1.346       .  D
C89          H94   1.079       .  S
C89          C90   1.342       .  D
C90         C213   1.505       .  S
C95         C179   1.567       .  S
C95          C97   1.542       .  S
C95          C99   1.510       .  S
C95          C98   1.586       .  S
C96         C100   1.529       .  S
C96         C102   1.499       .  S
C96         C101   1.605       .  S
C97         C105   1.392       .  A
C97         C100   1.395       .  A
C98         C109   1.399       .  A
C98         C101   1.431       .  A
C99         C113   1.368       .  A
C99         C102   1.382       .  A
C100        C103   1.385       .  A
C101        C107   1.414       .  A
C102        C110   1.375       .  A
C103        N104   1.353       .  A
C103        H116   1.079       .  S
N104        C125   1.451       .  S
N104        C105   1.360       .  A
C105        H106   1.081       .  S
C107        N108   1.378       .  A
C107        H117   1.081       .  S
N108        C109   1.373       .  A
C109        H115   1.082       .  S
C110        N111   1.327       .  A
C110        H112   1.078       .  S
N111        C137   1.413       .  S
N111        C113   1.333       .  A
C113        H114   1.065       .  S
C118        C119   1.551       .  S
C118        C124   1.575       .  S
C118        C122   1.537       .  S
C118        C337   1.524       .  S
C119        H126   1.086       .  S
C119        C120   1.349       .  D
C120        C121   1.516       .  S
C120        N198   1.436       .  S
C121        C125   1.523       .  S
C121        C123   1.562       .  S
C121        H127   1.109       .  S
C122        H128   1.085       .  S
C122        C123   1.350       .  D
C123        C143   1.520       .  S
C124        H129   1.080       .  S
C124        C125   1.380       .  D
C130        C131   1.572       .  S
C130        C136   1.539       .  S
C130        C134   1.583       .  S
C130        C317   1.553       .  S
C131        H138   1.077       .  S
C131        C132   1.363       .  D
C132        C133   1.532       .  S
C132        N221   1.459       .  S
C133        C137   1.508       .  S
C133        C135   1.574       .  S
C133        H139   1.111       .  S
C134        H140   1.085       .  S
C134        C135   1.385       .  D
C136        H141   1.087       .  S
C136        C137   1.342       .  D
C142        C144   1.556       .  S
C142        C146   1.566       .  S
C142        C145   1.645       .  S
C143        C147   1.522       .  S
C143        C149   1.493       .  S
C143        C148   1.536       .  S
C144        C152   1.391       .  A
C144        C147   1.385       .  A
C145        C156   1.436       .  A
C145        C148   1.423       .  A
C146        C160   1.391       .  A
C146        C149   1.366       .  A
C147        C150   1.371       .  A
C148        C154   1.387       .  A
C149        C157   1.367       .  A
C150        N151   1.352       .  A
C150        H163   1.075       .  S
N151        C170   1.447       .  S
N151        C152   1.367       .  A
C152        H153   1.080       .  S
C154        N155   1.355       .  A
C154        H164   1.081       .  S
N155        C156   1.393       .  A
C156        H162   1.082       .  S
C157        N158   1.338       .  A
C157        H159   1.075       .  S
N158        C182   1.441       .  S
N158        C160   1.344       .  A
C160        H161   1.045       .  S
C165        C166   1.536       .  S
C165        C171   1.572       .  S
C165        C169   1.567       .  S
C165        C288   1.537       .  S
C166        H173   1.087       .  S
C166        C167   1.344       .  D
C167        C168   1.501       .  S
C168        C172   1.565       .  S
C168        C170   1.521       .  S
C168        H174   1.110       .  S
C169        H175   1.083       .  S
C169        C170   1.355       .  D
C171        H176   1.084   1_554  S
C171        C172   1.386       .  D
C172        C190   1.550       .  S
C177        C178   1.560       .  S
C177        C183   1.536       .  S
C177        C181   1.543       .  S
C177        C277   1.511       .  S
C178        H185   1.085       .  S
C178        C179   1.360       .  D
C179        C180   1.588       .  S
C180        C184   1.588       .  S
C180        C182   1.531       .  S
C180        H186   1.109       .  S
C181        H187   1.085       .  S
C181        C182   1.342       .  D
C183        H188   1.084       .  S
C183        C184   1.357       .  D
C184        C212   1.555       .  S
C189        C191   1.526       .  S
C189        C193   1.554       .  S
C189        C192   1.594   1_554  S
C190        C194   1.521       .  S
C190        C196   1.535       .  S
C190        C195   1.563   1_554  S
C191        C199   1.374       .  A
C191        C194   1.375       .  A
C192        C203   1.402       .  A
C192        C195   1.432       .  A
C193        C207   1.393       .  A
C193        C196   1.382       .  A
C194        C197   1.374       .  A
C195        C201   1.388       .  A
C196        C204   1.383       .  A
C197        N198   1.347       .  A
C197        H210   1.077       .  S
N198        C199   1.357       .  A
C199        H200   1.068       .  S
C201        N202   1.366       .  A
C201        H211   1.082       .  S
N202        C203   1.370       .  A
N202        N225   1.427       .  S
C203        H209   1.080       .  S
C204        N205   1.357       .  A
C204        H206   1.078       .  S
N205        C207   1.369       .  A
C207        H208   1.078       .  S
C212        C214   1.556       .  S
C212        C216   1.553       .  S
C212        C215   1.589       .  S
C213        C217   1.517       .  S
C213        C219   1.502       .  S
C213        C218   1.560       .  S
C214        C222   1.396       .  A
C214        C217   1.377       .  A
C215        C226   1.409       .  A
C215        C218   1.420       .  A
C216        C230   1.396       .  A
C216        C219   1.376       .  A
C217        C220   1.378       .  A
C218        C224   1.385       .  A
C219        C227   1.368       .  A
C220        N221   1.347       .  A
C220        H233   1.073       .  S
N221        C222   1.366       .  A
C222        H223   1.078       .  S
C224        N225   1.355       .  A
C224        H234   1.079       .  S
N225        C226   1.375       .  A
C226        H232   1.081       .  S
C227        N228   1.340       .  A
C227        H229   1.067       .  S
N228        C230   1.366       .  A
C230        H231   1.081       .  S
O235        C243   1.285       .  A
O235       Co255   2.087       .  S
O236        C244   1.266       .  A
O236       Co256   2.020   1_455  S
O237        C245   1.266       .  A
O237       Co257   1.916   1_455  S
O238        C246   1.255       .  A
O238       Co258   1.952       .  S
O239        C245   1.281       .  A
O239       Co256   2.039   1_455  S
O240        C246   1.273       .  A
O240       Co255   2.018       .  S
O241        C244   1.259       .  A
O241       Co258   1.965   1_455  S
O242        C243   1.260       .  A
O242       Co257   1.903       .  S
C243        C840   1.469   1_556  S
C244        C731   1.498       .  S
C245        C780   1.465       .  S
C246        C791   1.449       .  S
O247        C260   1.260       .  A
O247       Co255   1.955       .  S
O248        C261   1.254       .  A
O248       Co256   1.962       .  S
O249        C262   1.295       .  A
O249       Co257   2.101       .  S
O250        C263   1.265       .  A
O250       Co258   1.988       .  S
O251        C263   1.267       .  A
O251       Co256   1.951       .  S
O252        C262   1.270       .  A
O252       Co255   1.919       .  S
O253        C260   1.277       .  A
O253       Co258   2.037       .  S
O254        C261   1.253       .  A
O254       Co257   1.994       .  S
Co255       O259   1.995       .  S
Co256       O259   2.042       .  S
Co257       O259   2.002       .  S
Co258       O259   2.034       .  S
C260        C328   1.478       .  S
C261        C388   1.459       .  S
C262        C297   1.477       .  S
C263        C268   1.443       .  S
C264        C265   1.408       .  A
C264        C269   1.393       .  A
C264        H274   1.084       .  S
C265        C266   1.406       .  A
C265        C270   1.480       .  S
C266        C267   1.381       .  A
C266        F271   1.355       .  S
C267        C268   1.393       .  A
C267        H272   1.076       .  S
C268        C269   1.399       .  A
C269        F273   1.357       .  S
C270        C275   1.420       .  A
C270        C279   1.403       .  A
C275        C276   1.386       .  A
C275        F280   1.356       .  S
C276        C277   1.395       .  A
C276        H281   1.083       .  S
C277        C278   1.410       .  A
C278        C279   1.387       .  A
C278        F282   1.359       .  S
C279        H283   1.079       .  S
C284        C285   1.416   1_556  A
C284        C289   1.420       .  A
C284        H294   1.082       .  S
C285        C286   1.412       .  A
C285        C290   1.513       .  S
C286        C287   1.378       .  A
C286        F291   1.356       .  S
C287        C288   1.406   1_655  A
C287        H292   1.078       .  S
C288        C289   1.416   1_454  A
C289        F293   1.356   1_655  S
C290        C295   1.405   1_554  A
C290        C299   1.410       .  A
C295        C296   1.408       .  A
C295        F300   1.355       .  S
C296        C297   1.404       .  A
C296        H301   1.079       .  S
C297        C298   1.403   1_556  A
C298        C299   1.405       .  A
C298        F302   1.350       .  S
C299        H303   1.084       .  S
C304        C309   1.406   1_655  A
C304        C728   1.408       .  A
C304        H314   1.081       .  S
C305        C306   1.413       .  A
C305        C727   1.410       .  A
C305        C310   1.508       .  S
C306        C307   1.402   1_655  A
C306        F311   1.358       .  S
C307        C308   1.407   1_545  A
C307        H312   1.081       .  S
C308        C732   1.413       .  A
C308        C667   1.501       .  S
C309        C731   1.414       .  A
C309        F313   1.358       .  S
C310        C315   1.410       .  A
C310        C319   1.407       .  A
C315        C316   1.410       .  A
C315        F320   1.356       .  S
C316        C317   1.417       .  A
C316        H321   1.083       .  S
C317        C318   1.414       .  A
C318        C319   1.400       .  A
C318        F322   1.350       .  S
C319        H323   1.082       .  S
C324        C325   1.406       .  A
C324        C329   1.396       .  A
C324        H334   1.084       .  S
C325        C326   1.400       .  A
C325        C330   1.473       .  S
C326        C327   1.397       .  A
C326        F331   1.357       .  S
C327        C328   1.406       .  A
C327        H332   1.076       .  S
C328        C329   1.406       .  A
C329        F333   1.358       .  S
C330        C335   1.396       .  A
C330        C339   1.409       .  A
C335        C336   1.390   1_556  A
C335        F340   1.358       .  S
C336        C337   1.415       .  A
C336        H341   1.084       .  S
C337        C338   1.406       .  A
C338        C339   1.401   1_554  A
C338        F342   1.354       .  S
C339        H343   1.083       .  S
C344        C345   1.384       .  A
C344        C349   1.381       .  A
C344        H354   1.084       .  S
C345        C346   1.411       .  A
C345        C350   1.462   1_545  S
C346        C347   1.404       .  A
C346        F351   1.353       .  S
C347        C348   1.399       .  A
C347        H352   1.082       .  S
C348        C349   1.426       .  A
C349        F353   1.359       .  S
C350        C355   1.397       .  A
C350        C359   1.406       .  A
C355        C356   1.395       .  A
C355        F360   1.356   1_556  S
C356        C357   1.411       .  A
C356        H361   1.084   1_556  S
C357        C358   1.400       .  A
C357        C668   1.466       .  S
C358        C359   1.391       .  A
C358        F362   1.358       .  S
C359        H363   1.084       .  S
C364        C365   1.408   1_554  A
C364        C369   1.395   1_554  A
C364        H374   1.084       .  S
C365        C366   1.403       .  A
C365        C370   1.466   1_556  S
C366        C367   1.390       .  A
C366        F371   1.358       .  S
C367        C368   1.398       .  A
C367        H372   1.080       .  S
C368        C369   1.398       .  A
C368        C669   1.452       .  S
C369        F796   1.355   1_556  S
C370        C375   1.401       .  A
C370        C379   1.402   1_554  A
F373        C792   1.356       .  S
C375        C376   1.379       .  A
C375        F380   1.359       .  S
C376        C377   1.406       .  A
C376        H381   1.073       .  S
C377        C378   1.416       .  A
C378        C379   1.399   1_554  A
C378        F382   1.358       .  S
C379        H383   1.083       .  S
C384        C385   1.395       .  A
C384        C389   1.387       .  A
C384        H394   1.082       .  S
C385        C386   1.410   1_655  A
C385        C390   1.490       .  S
C386        C387   1.402   1_455  A
C386        F391   1.357       .  S
C387        C388   1.404       .  A
C387        H392   1.084   1_655  S
C388        C389   1.411       .  A
C389        F393   1.351       .  S
C390        C395   1.409       .  A
C390        C399   1.420   1_655  A
C395        C396   1.399       .  A
C395        F400   1.357       .  S
C396        C397   1.408   1_655  A
C396        H401   1.083       .  S
C397        C398   1.400       .  A
C398        C399   1.395       .  A
C398        F402   1.357       .  S
C399        H403   1.081       .  S
C404        C405   1.398   1_645  A
C404        C409   1.399   1_655  A
C404        H414   1.083       .  S
C405        C406   1.402   1_565  A
C405        C410   1.472   1_455  S
C406        C407   1.387       .  A
C406        F411   1.357       .  S
C407        C408   1.408       .  A
C407        H412   1.081       .  S
C408        C409   1.419       .  A
C409        F413   1.356   1_455  S
C410        C415   1.408   1_655  A
C410        C419   1.400       .  A
C415        C416   1.394       .  A
C415        F420   1.358       .  S
C416        C417   1.399   1_455  A
C416        H421   1.082       .  S
C417        C841   1.406       .  A
C417        C666   1.460       .  S
C418        C840   1.408       .  A
C418        C842   1.394       .  A
C418        F422   1.358       .  S
C419        C841   1.394       .  A
C419        H423   1.083       .  S
C424        C425   1.552       .  S
C424        C430   1.549       .  S
C424        C428   1.536       .  S
C424        C831   1.523       .  S
C425        H432   1.085       .  S
C425        C426   1.355       .  D
C426        C427   1.583       .  S
C426        N628   1.477       .  S
C427        C431   1.623       .  S
C427        C429   1.574       .  S
C427        H433   1.107       .  S
C428        H434   1.072       .  S
C428        C429   1.355       .  D
C429        C471   1.571       .  S
C430        H435   1.084       .  S
C430        C431   1.363       .  D
C431        C436   1.598       .  S
C436        C438   1.500       .  S
C436        C440   1.545       .  S
C436        C439   1.599       .  S
C437        C466   1.582       .  S
C437        C441   1.512       .  S
C437        C443   1.549       .  S
C437        C442   1.602       .  S
C438        C446   1.359       .  A
C438        C441   1.380       .  A
C439        C450   1.415   1_455  A
C439        C442   1.429       .  A
C440        C454   1.389       .  A
C440        C443   1.404       .  A
C441        C444   1.369       .  A
C442        C448   1.411   1_455  A
C443        C451   1.390       .  A
C444        N445   1.333       .  A
C444        H457   1.063       .  S
N445        C590   1.409       .  S
N445        C446   1.331       .  A
C446        H447   1.079       .  S
C448        N449   1.375       .  A
C448        H458   1.081       .  S
N449        C450   1.378       .  A
N449        N531   1.451       .  S
C450        H456   1.081       .  S
C451        N452   1.363       .  A
C451        H453   1.081       .  S
N452        C508   1.453       .  S
N452        C454   1.359       .  A
C454        H455   1.082       .  S
C459        C460   1.559       .  S
C459        C465   1.556       .  S
C459        C463   1.553       .  S
C459        C820   1.531       .  S
C460        H467   1.085       .  S
C460        C461   1.348       .  D
C461        C462   1.544       .  S
C461        N651   1.453       .  S
C462        C466   1.592       .  S
C462        C464   1.618       .  S
C462        H468   1.107       .  S
C463        H469   1.085       .  S
C463        C464   1.367       .  D
C464        C565   1.604       .  S
C465        H470   1.079       .  S
C465        C466   1.339       .  D
C471        C473   1.503       .  S
C471        C475   1.547       .  S
C471        C474   1.627       .  S
C472        C558   1.574       .  S
C472        C476   1.542       .  S
C472        C478   1.546       .  S
C472        C477   1.583       .  S
C473        C481   1.362       .  A
C473        C476   1.374       .  A
C474        C477   1.435       .  A
C475        C489   1.392       .  A
C475        C478   1.372       .  A
C476        C479   1.378       .  A
C478        C486   1.387       .  A
C479        N480   1.354       .  A
C479        H492   1.079       .  S
N480        C511   1.434       .  S
N480        C481   1.353       .  A
C481        H482   1.064       .  S
C483        N484   1.376       .  A
C483        H493   1.082       .  S
N484        C485   1.370       .  A
N484        N578   1.447       .  S
C485        H491   1.076       .  S
C486        N487   1.363       .  A
C486        H488   1.081       .  S
N487        C499   1.476       .  S
N487        C489   1.361       .  A
C489        H490   1.064       .  S
C494        C495   1.531       .  S
C494        C500   1.548       .  S
C494        C498   1.554       .  S
C494        C800   1.515       .  S
C495        H502   1.085       .  S
C495        C496   1.342       .  D
C496        C497   1.619       .  S
C496        C519   1.576       .  S
C497        C501   1.594       .  S
C497        C499   1.565       .  S
C497        H503   1.110       .  S
C498        H504   1.079       .  S
C498        C499   1.359       .  D
C500        H505   1.083       .  S
C500        C501   1.364       .  D
C501        C612   1.575       .  S
C506        C507   1.573       .  S
C506        C512   1.527       .  S
C506        C510   1.545       .  S
C506        C771   1.523       .  S
C507        H514   1.084       .  S
C507        C508   1.392       .  D
C508        C509   1.532       .  S
C509        C513   1.550       .  S
C509        C511   1.520       .  S
C509        H515   1.110       .  S
C510        H516   1.087       .  S
C510        C511   1.350       .  D
C512        H517   1.078       .  S
C512        C513   1.340       .  D
C513        C636   1.508       .  S
C518        C602   1.569       .  S
C518        C520   1.538       .  S
C518        C522   1.515       .  S
C518        C521   1.596       .  S
C519        C523   1.532       .  S
C519        C525   1.497       .  S
C519        C524   1.608       .  S
C520        C528   1.389       .  A
C520        C523   1.395       .  A
C521        C532   1.408       .  A
C521        C524   1.432       .  A
C522        C536   1.368       .  A
C522        C525   1.374       .  A
C523        C526   1.385       .  A
C524        C530   1.415       .  A
C525        C533   1.373       .  A
C526        N527   1.354       .  A
C526        H539   1.079       .  S
N527        C548   1.452       .  S
N527        C528   1.358       .  A
C528        H529   1.083       .  S
C530        N531   1.379       .  A
C530        H540   1.081       .  S
N531        C532   1.377       .  A
C532        H538   1.082       .  S
C533        N534   1.330       .  A
C533        H535   1.079       .  S
N534        C560   1.418       .  S
N534        C536   1.339       .  A
C536        H537   1.056       .  S
C541        C542   1.549       .  S
C541        C547   1.574       .  S
C541        C545   1.532       .  S
C541        C760   1.525       .  S
C542        H549   1.087       .  S
C542        C543   1.351       .  D
C543        C544   1.521       .  S
C543        N621   1.436       .  S
C544        C548   1.526       .  S
C544        C546   1.561       .  S
C544        H550   1.109       .  S
C545        H551   1.085       .  S
C545        C546   1.352       .  D
C546        C566   1.520       .  S
C547        H552   1.077       .  S
C547        C548   1.378       .  D
C553        C554   1.571       .  S
C553        C559   1.534       .  S
C553        C557   1.578       .  S
C553        C740   1.544       .  S
C554        H561   1.077       .  S
C554        C555   1.363       .  D
C555        C556   1.527       .  S
C555        N644   1.453       .  S
C556        C560   1.510       .  S
C556        C558   1.578       .  S
C556        H562   1.110       .  S
C557        H563   1.085       .  S
C557        C558   1.382       .  D
C559        H564   1.088       .  S
C559        C560   1.337       .  D
C565        C567   1.561       .  S
C565        C569   1.533       .  S
C565        C568   1.631       .  S
C566        C570   1.513       .  S
C566        C572   1.509       .  S
C566        C571   1.555       .  S
C567        C575   1.394       .  A
C567        C570   1.385       .  A
C568        C579   1.431       .  A
C568        C571   1.425       .  A
C569        C583   1.372       .  A
C569        C572   1.371       .  A
C570        C573   1.368       .  A
C571        C577   1.392       .  A
C572        C580   1.373       .  A
C573        N574   1.349       .  A
C573        H586   1.075       .  S
N574        C593   1.446       .  S
N574        C575   1.370       .  A
C575        H576   1.082       .  S
C577        N578   1.358       .  A
C577        H587   1.081       .  S
N578        C579   1.391       .  A
C579        H585   1.082       .  S
C580        N581   1.340       .  A
C580        H582   1.063       .  S
N581        C605   1.446       .  S
N581        C583   1.352       .  A
C583        H584   1.070       .  S
C588        C589   1.528       .  S
C588        C594   1.575       .  S
C588        C592   1.562       .  S
C588        C711   1.530       .  S
C589        H596   1.088       .  S
C589        C590   1.339       .  D
C590        C591   1.497       .  S
C591        C595   1.569       .  S
C591        C593   1.521       .  S
C591        H597   1.110       .  S
C592        H598   1.084       .  S
C592        C593   1.355       .  D
C594        H599   1.084   1_554  S
C594        C595   1.389       .  D
C595        C613   1.557       .  S
C600        C601   1.560       .  S
C600        C606   1.538       .  S
C600        C604   1.546       .  S
C600        C700   1.508       .  S
C601        H608   1.085       .  S
C601        C602   1.358       .  D
C602        C603   1.590       .  S
C603        C607   1.593       .  S
C603        C605   1.547       .  S
C603        H609   1.109       .  S
C604        H610   1.086       .  S
C604        C605   1.337       .  D
C606        H611   1.083       .  S
C606        C607   1.358       .  D
C607        C635   1.567       .  S
C612        C614   1.526       .  S
C612        C616   1.547       .  S
C612        C615   1.602       .  S
C613        C617   1.522       .  S
C613        C619   1.536       .  S
C613        C618   1.564   1_554  S
C614        C622   1.372       .  A
C614        C617   1.372       .  A
C615        C626   1.405   1_554  A
C615        C618   1.436   1_554  A
C616        C630   1.392       .  A
C616        C619   1.381       .  A
C617        C620   1.375       .  A
C618        C624   1.388       .  A
C619        C627   1.383       .  A
C620        N621   1.347       .  A
C620        H633   1.078       .  S
N621        C622   1.358       .  A
C622        H623   1.065       .  S
C624        N625   1.366       .  A
C624        H634   1.082       .  S
N625        C626   1.373       .  A
N625        N648   1.430       .  S
C626        H632   1.081       .  S
C627        N628   1.357       .  A
C627        H629   1.079       .  S
N628        C630   1.367       .  A
C630        H631   1.078       .  S
C635        C637   1.557       .  S
C635        C639   1.543       .  S
C635        C638   1.589       .  S
C636        C640   1.520       .  S
C636        C642   1.501       .  S
C636        C641   1.564       .  S
C637        C645   1.395       .  A
C637        C640   1.382       .  A
C638        C649   1.410       .  A
C638        C641   1.419       .  A
C639        C653   1.378       .  A
C639        C642   1.374       .  A
C640        C643   1.375       .  A
C641        C647   1.390       .  A
C642        C650   1.372       .  A
C643        N644   1.349       .  A
C643        H656   1.073       .  S
N644        C645   1.366       .  A
C645        H646   1.079       .  S
C647        N648   1.357       .  A
C647        H657   1.079       .  S
N648        C649   1.374       .  A
C649        H655   1.080       .  S
C650        N651   1.339       .  A
C650        H652   1.066       .  S
N651        C653   1.359       .  A
C653        H654   1.075       .  S
O658        C666   1.283   1_556  A
O658       Co678   2.071       .  S
O659        C667   1.265       .  A
O659       Co679   2.032   1_455  S
O660        C668   1.266       .  A
O660       Co680   1.916   1_455  S
O661        C669   1.252   1_565  A
O661       Co681   1.943       .  S
O662        C668   1.284       .  A
O662       Co679   2.039   1_455  S
O663        C669   1.275   1_565  A
O663       Co678   2.032       .  S
O664        C667   1.254       .  A
O664       Co681   1.956   1_455  S
O665        C666   1.259       .  A
O665       Co680   1.913   1_554  S
O670        C683   1.260       .  A
O670       Co678   1.955       .  S
O671        C684   1.252       .  A
O671       Co679   1.966       .  S
O672        C685   1.291       .  A
O672       Co680   2.080       .  S
O673        C686   1.266       .  A
O673       Co681   1.993       .  S
O674        C686   1.266       .  A
O674       Co679   1.948       .  S
O675        C685   1.273       .  A
O675       Co678   1.921       .  S
O676        C683   1.274       .  A
O676       Co681   2.027       .  S
O677        C684   1.250       .  A
O677       Co680   1.989       .  S
Co678       O682   2.003       .  S
Co679       O682   2.045       .  S
Co680       O682   2.014       .  S
Co681       O682   2.026       .  S
C683        C751   1.474       .  S
C684        C811   1.457       .  S
C685        C720   1.471       .  S
C686        C691   1.448       .  S
C687        C688   1.408       .  A
C687        C692   1.391       .  A
C687        H697   1.084       .  S
C688        C689   1.407       .  A
C688        C693   1.479       .  S
C689        C690   1.383       .  A
C689        F694   1.355       .  S
C690        C691   1.394       .  A
C690        H695   1.075       .  S
C691        C692   1.399       .  A
C692        F696   1.357       .  S
C693        C698   1.418       .  A
C693        C702   1.403       .  A
C698        C699   1.384       .  A
C698        F703   1.356       .  S
C699        C700   1.394       .  A
C699        H704   1.083       .  S
C700        C701   1.409       .  A
C701        C702   1.387       .  A
C701        F705   1.359       .  S
C702        H706   1.079       .  S
C707        C708   1.419       .  A
C707        C712   1.416       .  A
C707        H717   1.080   1_554  S
C708        C709   1.415       .  A
C708        C713   1.516       .  S
C709        C710   1.378       .  A
C709        F714   1.356       .  S
C710        C711   1.409   1_655  A
C710        H715   1.081       .  S
C711        C712   1.410   1_455  A
C712        F716   1.356   1_654  S
C713        C718   1.408   1_554  A
C713        C722   1.410       .  A
C718        C719   1.406       .  A
C718        F723   1.355       .  S
C719        C720   1.404       .  A
C719        H724   1.080       .  S
C720        C721   1.402   1_556  A
C721        C722   1.402       .  A
C721        F725   1.352       .  S
C722        H726   1.082       .  S
C727        C732   1.407   1_645  A
C727        H737   1.081   1_545  S
C728        C729   1.415       .  A
C728        C733   1.507       .  S
C729        C730   1.402   1_655  A
C729        F734   1.358       .  S
C730        C731   1.405       .  A
C730        H735   1.083       .  S
C732        F736   1.357       .  S
C733        C738   1.411       .  A
C733        C742   1.405       .  A
C738        C739   1.412       .  A
C738        F743   1.356       .  S
C739        C740   1.419       .  A
C739        H744   1.083       .  S
C740        C741   1.418       .  A
C741        C742   1.392       .  A
C741        F745   1.348       .  S
C742        H746   1.082       .  S
C747        C748   1.405       .  A
C747        C752   1.394       .  A
C747        H757   1.084       .  S
C748        C749   1.400   1_565  A
C748        C753   1.472       .  S
C749        C750   1.395       .  A
C749        F754   1.357       .  S
C750        C751   1.406   1_545  A
C750        H755   1.078       .  S
C751        C752   1.405       .  A
C752        F756   1.358       .  S
C753        C758   1.396       .  A
C753        C762   1.408   1_556  A
C758        C759   1.392   1_556  A
C758        F763   1.358       .  S
C759        C760   1.416       .  A
C759        H764   1.084       .  S
C760        C761   1.405       .  A
C761        C762   1.400       .  A
C761        F765   1.352       .  S
C762        H766   1.084   1_554  S
C767        C768   1.384       .  A
C767        C772   1.382       .  A
C767        H777   1.084       .  S
C768        C769   1.411       .  A
C768        C773   1.464       .  S
C769        C770   1.406       .  A
C769        F774   1.354       .  S
C770        C771   1.401       .  A
C770        H775   1.082       .  S
C771        C772   1.429       .  A
C772        F776   1.359       .  S
C773        C778   1.398       .  A
C773        C782   1.409       .  A
C778        C779   1.396       .  A
C778        F783   1.357   1_556  S
C779        C780   1.410       .  A
C779        H784   1.084       .  S
C780        C781   1.399       .  A
C781        C782   1.392       .  A
C781        F785   1.358       .  S
C782        H786   1.084       .  S
C787        C788   1.406       .  A
C787        C792   1.395       .  A
C787        H797   1.084   1_556  S
C788        C789   1.403       .  A
C788        C793   1.460   1_556  S
C789        C790   1.384       .  A
C789        F794   1.358       .  S
C790        C791   1.394       .  A
C790        H795   1.079       .  S
C791        C792   1.401       .  A
C793        C798   1.399       .  A
C793        C802   1.400       .  A
C798        C799   1.383       .  A
C798        F803   1.359       .  S
C799        C800   1.408       .  A
C799        H804   1.074       .  S
C800        C801   1.413       .  A
C801        C802   1.394       .  A
C801        F805   1.358       .  S
C802        H806   1.084   1_554  S
C807        C808   1.398       .  A
C807        C812   1.388       .  A
C807        H817   1.082       .  S
C808        C809   1.409   1_655  A
C808        C813   1.488       .  S
C809        C810   1.399       .  A
C809        F814   1.357       .  S
C810        C811   1.402   1_455  A
C810        H815   1.084       .  S
C811        C812   1.409       .  A
C812        F816   1.352       .  S
C813        C818   1.407       .  A
C813        C822   1.419   1_655  A
C818        C819   1.396       .  A
C818        F823   1.357       .  S
C819        C820   1.407   1_655  A
C819        H824   1.083       .  S
C820        C821   1.401       .  A
C821        C822   1.395       .  A
C821        F825   1.358       .  S
C822        H826   1.082       .  S
C827        C828   1.401   1_655  A
C827        C832   1.402   1_655  A
C827        H837   1.083       .  S
C828        C829   1.399       .  A
C828        C833   1.472   1_455  S
C829        C830   1.386       .  A
C829        F834   1.358       .  S
C830        C831   1.411       .  A
C830        H835   1.080       .  S
C831        C832   1.416       .  A
C832        F836   1.356   1_455  S
C833        C838   1.408   1_655  A
C833        C842   1.399       .  A
C838        C839   1.396       .  A
C838        F843   1.358       .  S
C839        C840   1.402   1_455  A
C839        H844   1.083       .  S
C841        F845   1.357       .  S
C842        H846   1.083       .  S
