geometry optimzed in LAMMPS
_audit_creation_date              2020-11-30 
_audit_creation_method            'lammps2cif' 
_symmetry_space_group_name_H-M    'P1' 
_symmetry_Int_Tables_number       1 
_symmetry_cell_setting            triclinic 
loop_ 
_symmetry_equiv_pos_as_xyz 
  x,y,z 
_cell_length_a                    31.27546569776084 
_cell_length_b                    31.33659971929984 
_cell_length_c                    31.379369024656768 
_cell_angle_alpha                 90.73259688825058 
_cell_angle_beta                  90.05903447205958 
_cell_angle_gamma                 89.5288603493488 
loop_ 
_atom_site_label 
_atom_site_type_symbol 
_atom_site_fract_x 
_atom_site_fract_y 
_atom_site_fract_z 
_atom_site_charge 
O1          O  0.98987783  0.12377248  0.07363874    -0.86840
O2          O  0.00095728  0.88041815  0.06663460    -0.87010
O3          O  0.92797002  0.00411592  0.11962565    -0.88680
O4          O  0.06713911  0.00456072  0.12506385    -0.87430
O5          O  0.11973706  0.00553326  0.07423360    -0.87020
O6          O  0.87640145  0.00484609  0.06751908    -0.88390
O7          O  0.99972698  0.93147378  0.11963826    -0.86870
O8          O  0.99052607  0.07153417  0.12416488    -0.86460
Zr9        Zr  0.99831923  0.00258717  0.08676258     2.84310
O10         O  0.04288452  0.96058613  0.04318481    -1.08430
O11         O  0.95553798  0.04482358  0.04226589    -1.09160
C12         C  0.98761549  0.11103135  0.11274014     1.06270
C13         C  0.00073556  0.89206743  0.10636251     1.06210
C14         C  0.88863219  0.00546241  0.10709438     1.09190
C15         C  0.10692709  0.00542320  0.11356345     1.06970
H16         H  0.93781406  0.94146492  0.05870828     0.32530
O17         O  0.95569609  0.95960444  0.04174452    -1.29390
H18         H  0.05823981  0.06579666  0.06502174     0.32200
O19         O  0.04157504  0.04781203  0.04622879    -1.31060
O20         O  0.00688239  0.88365735  0.92789838    -0.86840
O21         O  0.00001215  0.12751848  0.93374195    -0.88330
O22         O  0.87806826  0.93145617  0.99507627    -0.86910
O23         O  0.12282448  0.93531578  0.00216416    -0.86960
O24         O  0.11927084  0.07686297  0.00489646    -0.86670
O25         O  0.87603452  0.07165027  0.99923405    -0.86480
O26         O  0.93400530  0.00515126  0.87445458    -0.86850
O27         O  0.07293662  0.00774778  0.88187635    -0.86310
O28         O  0.88111566  0.00422046  0.92503086    -0.87380
O29         O  0.12434503  0.00781112  0.93407175    -0.86540
O30         O  0.93095684  0.88032223  0.99464648    -0.86930
O31         O  0.92708997  0.12387223  0.00145954    -0.86660
O32         O  0.06717963  0.12879485  0.00559220    -0.86310
O33         O  0.07104618  0.88379951  0.99986915    -0.86710
O34         O  0.00782353  0.93541290  0.87689754    -0.87010
O35         O  0.00288239  0.07560631  0.88162366    -0.88350
Zr36       Zr  0.00048472  0.91746979  0.99831505     2.83100
Zr37       Zr  0.99826425  0.09077604  0.00252112     2.83500
Zr38       Zr  0.91255564  0.00226780  0.99755539     2.84090
Zr39       Zr  0.08673224  0.00545686  0.00294512     2.83360
Zr40       Zr  0.00188773  0.00486238  0.91405256     2.84220
O41         O  0.04322100  0.04814292  0.95952496    -1.08920
O42         O  0.95768607  0.96017111  0.95425352    -1.08420
C43         C  0.00938462  0.89595242  0.88875199     1.06240
C44         C  0.00185359  0.11514173  0.89422224     1.08860
C45         C  0.89097942  0.89192513  0.99411497     1.06410
C46         C  0.11048329  0.89588890  0.00096113     1.06770
C47         C  0.10691100  0.11653977  0.00581931     1.06360
C48         C  0.88779705  0.11116713  0.00055039     1.05910
C49         C  0.89416522  0.00519161  0.88567487     1.06330
C50         C  0.11233760  0.00852796  0.89450911     1.05850
H51         H  0.93912919  0.06488888  0.93937701     0.32520
O52         O  0.95668821  0.04704804  0.95728681    -1.30020
H53         H  0.06343797  0.94497244  0.94051676     0.32550
O54         O  0.04456573  0.96219121  0.95810195    -1.31400
C55         C  0.98950475  0.16644949  0.22252318     0.02780
C56         C  0.98482357  0.13431564  0.19051125    -0.13370
C57         C  0.98282354  0.14458254  0.14706139     0.00280
C58         C  0.97962841  0.18781807  0.13653589    -0.11900
C59         C  0.98426761  0.22027968  0.16778378     0.02770
C60         C  0.99092113  0.20918920  0.21028590    -0.11320
H61         H  0.98477806  0.10102177  0.19933025     0.08360
H62         H  0.97612673  0.19654444  0.10340678     0.05890
H63         H  0.99926247  0.23374708  0.23330890     0.05740
O64         O  0.00880663  0.11101631  0.42671090    -0.75640
O65         O  0.00161017  0.05331352  0.38309418    -0.54550
C66         C  0.00675825  0.09295509  0.38922103     0.78080
O67         O  0.11814279  0.99354121  0.57867587    -0.60250
O68         O  0.05955545  0.98726288  0.62115525    -0.53270
C69         C  0.09982137  0.99060634  0.61532781     0.70100
O70         O  0.12595109  0.99648862  0.43273675    -0.74800
O71         O  0.07075322  0.99208590  0.38565247    -0.55370
C72         C  0.11053259  0.99520797  0.39467809     0.76100
O73         O  0.99703924  0.10976412  0.57820638    -0.59950
O74         O  0.00527357  0.05126278  0.61926005    -0.53070
C75         C  0.99971033  0.09101983  0.61485268     0.72690
Zr76       Zr  0.00255256  0.08487281  0.50187273     2.54710
O77         O  0.05727305  0.13931815  0.50856925    -0.80510
O78         O  0.94841340  0.14086797  0.49637264    -0.93930
Zr79       Zr  0.09379983  0.99120389  0.50389332     2.64680
O80         O  0.15091132  0.04347968  0.50762603    -0.98890
O81         O  0.14655311  0.93365336  0.50481195    -0.80950
O82         O  0.05032864  0.03868728  0.46344838    -0.84300
O83         O  0.04720000  0.03819296  0.54162589    -2.19010
O84         O  0.87736681  0.99586993  0.56704959    -0.67690
O85         O  0.93292260  0.99329409  0.61375236    -0.52260
C86         C  0.89302558  0.99539536  0.60494469     0.71080
O87         O  0.00431311  0.87276415  0.42377726    -0.60600
O88         O  0.00490421  0.93092700  0.38101896    -0.52580
C89         C  0.00554973  0.89083757  0.38701291     0.72880
O90         O  0.99550167  0.87178605  0.57142212    -0.72000
O91         O  0.99581483  0.92938847  0.61631018    -0.50670
C92         C  0.99415345  0.88940482  0.60888071     0.74260
O93         O  0.88552307  0.99754033  0.42210888    -0.67330
O94         O  0.94404880  0.99303992  0.37899716    -0.54520
C95         C  0.90381013  0.99624223  0.38535255     0.72640
Zr96       Zr  0.91015849  0.99390613  0.49618434     2.77540
O97         O  0.85621694  0.93847566  0.49135830    -0.98080
O98         O  0.85470067  0.04882846  0.49460079    -0.78900
Zr99       Zr  0.00120571  0.89988913  0.49815963     2.70070
O100        O  0.94651056  0.84521187  0.49372940    -0.80140
O101        O  0.05687046  0.84519193  0.49981425    -0.99230
Zr102      Zr  0.00482119  0.99220629  0.42496598     2.21500
Zr103      Zr  0.99908142  0.99117720  0.57489173     2.11130
O104        O  0.95313185  0.94578058  0.53599672    -2.47910
O105        O  0.95615157  0.94608367  0.45795705    -0.79940
O106        O  0.95405929  0.03967945  0.53857821    -0.72130
O107        O  0.05007868  0.94485491  0.46208212    -2.33090
O108        O  0.95737994  0.04006216  0.46025669    -2.29300
O109        O  0.04709080  0.94405715  0.54008597    -0.73890
H110        H  0.06351869  0.05465279  0.56204794     0.78110
H111        H  0.06768272  0.92815778  0.44274198     0.79190
H112        H  0.93513643  0.92935233  0.55451838     0.81420
H113        H  0.94136381  0.05731730  0.44046297     0.79020
H114        H  0.13667477  0.91305191  0.48281636     0.42060
H115        H  0.07861838  0.85671556  0.51971168     0.41030
H116        H  0.92164416  0.85978375  0.48063140     0.40710
H117        H  0.86155362  0.92023976  0.51637386     0.38640
H118        H  0.86497934  0.07129473  0.51447888     0.41770
H119        H  0.92143885  0.12543347  0.49086302     0.36560
H120        H  0.08427358  0.12416043  0.50140237     0.42670
H121        H  0.14197329  0.06383918  0.53037229     0.39090
H122        H  0.82894773  0.95342533  0.49790958     0.44010
H123        H  0.94518739  0.15254089  0.52566386     0.42730
H124        H  0.17555756  0.02783193  0.51987704     0.42870
H125        H  0.04389045  0.82117161  0.51523540     0.43230
C126        C  0.83733008  0.00815627  0.21717478     0.02780
C127        C  0.86798950  0.00870688  0.18461689    -0.13370
C128        C  0.85552439  0.00750685  0.14136622     0.00280
C129        C  0.81151691  0.00695815  0.13179072    -0.11900
C130        C  0.78082521  0.00524880  0.16470191     0.02770
C131        C  0.79405511  0.00616302  0.20712385    -0.11320
H132        H  0.90151461  0.00926039  0.19332783     0.08360
H133        H  0.80101291  0.00644708  0.09888477     0.05890
H134        H  0.77065382  0.00428004  0.23250431     0.05740
C135        C  0.00525555  0.78187205  0.15824234     0.02780
C136        C  0.00276807  0.81386101  0.12708604    -0.13370
C137        C  0.00198436  0.85759040  0.13913996     0.00280
C138        C  0.00281601  0.86798800  0.18305915    -0.11900
C139        C  0.00520817  0.83569899  0.21386557     0.02770
C140        C  0.00634618  0.79310480  0.20116318    -0.11320
H141        H  0.00151784  0.80452071  0.09375871     0.08360
H142        H  0.00199627  0.90106152  0.19352102     0.05890
H143        H  0.00809296  0.76833135  0.22497182     0.05740
C144        C  0.21658950  0.00909209  0.16734947     0.02780
C145        C  0.18437678  0.00837014  0.13614877    -0.13370
C146        C  0.14076204  0.00663406  0.14769041     0.00280
C147        C  0.13051331  0.00581941  0.19174382    -0.11900
C148        C  0.16324334  0.00702685  0.22295092     0.02770
C149        C  0.20587349  0.00838029  0.21034798    -0.11320
H150        H  0.19363971  0.00860089  0.10289523     0.08360
H151        H  0.09747548  0.00422489  0.20185499     0.05890
H152        H  0.23099509  0.00851908  0.23421830     0.05740
C153        C  0.00891582  0.83793918  0.78064532     0.02780
C154        C  0.00963001  0.79556851  0.79359365    -0.13370
C155        C  0.01258610  0.78568116  0.83654066     0.00280
C156        C  0.01597952  0.81862878  0.86715649    -0.11900
C157        C  0.01354809  0.86175513  0.85526234     0.02770
C158        C  0.01194739  0.87111140  0.81145059    -0.11320
H159        H  0.00520595  0.77012388  0.77028323     0.08360
H160        H  0.01803470  0.81032505  0.90050808     0.05890
H161        H  0.01106688  0.90400839  0.80131623     0.05740
C162        C  0.16402389  0.01168819  0.78454917     0.02780
C163        C  0.13345299  0.01000139  0.81717905    -0.13370
C164        C  0.14578350  0.01037717  0.86047447     0.00280
C165        C  0.18989774  0.01149891  0.87019178    -0.11900
C166        C  0.22055159  0.01302590  0.83726864     0.02770
C167        C  0.20734116  0.01393534  0.79477373    -0.11320
H168        H  0.10000964  0.00783745  0.80843202     0.08360
H169        H  0.20056265  0.01042657  0.90301901     0.05890
H170        H  0.23098297  0.01386840  0.76951101     0.05740
C171        C  0.00264868  0.16585313  0.78402339     0.02780
C172        C  0.00686076  0.13608519  0.81724777    -0.13370
C173        C  0.00196430  0.14837133  0.86027835     0.00280
C174        C  0.99648473  0.19216073  0.86973348    -0.11900
C175        C  0.99400600  0.22212416  0.83656267     0.02770
C176        C  0.99504579  0.20857234  0.79414632    -0.11320
H177        H  0.01280682  0.10283885  0.80922951     0.08360
H178        H  0.99502093  0.20322003  0.90255479     0.05890
H179        H  0.99122720  0.23172052  0.76904390     0.05740
C180        C  0.83764329  0.99993024  0.77625819     0.02780
C181        C  0.87063017  0.00267693  0.80716298    -0.13370
C182        C  0.86055768  0.00599809  0.85113522     0.00280
C183        C  0.81707592  0.00883389  0.86243600    -0.11900
C184        C  0.78417975  0.00456517  0.83176885     0.02770
C185        C  0.79500414  0.99957982  0.78898341    -0.11320
H186        H  0.90368381  0.00153781  0.79693077     0.08360
H187        H  0.80848499  0.01282440  0.89568802     0.05890
H188        H  0.77027611  0.99454271  0.76528890     0.05740
O189        O  0.57179887  0.11522187  0.00198429    -0.75640
O190        O  0.61807006  0.05854797  0.00242841    -0.54550
C191        C  0.60967532  0.09855498  0.00139361     0.78080
O192        O  0.42337461  0.99989788  0.11962246    -0.60250
O193        O  0.37829365  0.99546397  0.06243796    -0.53270
C194        C  0.38591328  0.99838626  0.10244219     0.70100
O195        O  0.57112372  0.99607618  0.12322478    -0.74800
O196        O  0.61677406  0.00020269  0.06695980    -0.55370
C197        C  0.60891453  0.99783180  0.10663550     0.76100
O198        O  0.42457392  0.11474566  0.00136062    -0.59950
O199        O  0.37892114  0.05833543  0.00087313    -0.53070
C200        C  0.38688733  0.09825867  0.00146469     0.72690
Zr201      Zr  0.49848432  0.08680255  0.00155597     2.54710
O202        O  0.49792770  0.14284189  0.05597119    -0.80510
O203        O  0.49704039  0.13952295  0.94524068    -0.93930
Zr204      Zr  0.49751071  0.99726592  0.09347023     2.64680
O205        O  0.49830891  0.05450858  0.14665856    -0.98890
O206        O  0.49443491  0.94386817  0.14899741    -0.80950
O207        O  0.53778882  0.04316052  0.04952219    -0.84300
O208        O  0.45819151  0.04235557  0.04692974    -2.19010
O209        O  0.43000052  0.00021334  0.87994882    -0.67690
O210        O  0.38215230  0.00000514  0.93487201    -0.52260
C211        C  0.39167903  0.00175338  0.89530373     0.71080
O212        O  0.57174263  0.87390078  0.99941933    -0.60600
O213        O  0.61695557  0.92996727  0.00810263    -0.52580
C214        C  0.60921449  0.88999792  0.00373350     0.72880
O215        O  0.42707450  0.87510325  0.00202444    -0.72000
O216        O  0.38059805  0.93122166  0.99645928    -0.50670
C217        C  0.38931043  0.89133755  0.99876665     0.74260
O218        O  0.57869001  0.98947302  0.88546423    -0.67330
O219        O  0.62019615  0.99656699  0.94435047    -0.54520
C220        C  0.61550132  0.99154857  0.90444683     0.72640
Zr221      Zr  0.50278922  0.99385678  0.91022078     2.77540
O222        O  0.50060068  0.93728110  0.85635677    -0.98080
O223        O  0.50920796  0.04773502  0.85546964    -0.78900
Zr224      Zr  0.49946867  0.90430210  0.00213410     2.70070
O225        O  0.49744433  0.84806271  0.94798384    -0.80140
O226        O  0.50189682  0.85268659  0.05941273    -0.99230
Zr227      Zr  0.57574593  0.99539692  0.00444207     2.21500
Zr228      Zr  0.42180665  0.99526502  0.99972917     2.11130
O229        O  0.46106837  0.94852446  0.95408617    -2.47910
O230        O  0.54108268  0.94800980  0.95682472    -0.79940
O231        O  0.46077040  0.04058425  0.95428970    -0.72130
O232        O  0.53793383  0.94950939  0.04979927    -2.33090
O233        O  0.53982199  0.04102405  0.95654365    -2.29300
O234        O  0.45845758  0.95010965  0.04763802    -0.73890
H235        H  0.43845574  0.05971828  0.06341332     0.78110
H236        H  0.55700202  0.93264354  0.06715565     0.79190
H237        H  0.44220424  0.93151705  0.93651457     0.81420
H238        H  0.55953319  0.05756003  0.93998646     0.79020
H239        H  0.50745139  0.91797539  0.13586899     0.42060
H240        H  0.47725441  0.86040579  0.07782436     0.41030
H241        H  0.50239659  0.86301183  0.92084505     0.40710
H242        H  0.47349776  0.92215063  0.86169533     0.38640
H243        H  0.49447832  0.07317425  0.86765463     0.41770
H244        H  0.52183727  0.13206751  0.92693728     0.36560
H245        H  0.50913759  0.12880049  0.08181654     0.42670
H246        H  0.47405123  0.07335351  0.13884164     0.39090
H247        H  0.49568295  0.95236708  0.82923278     0.44010
H248        H  0.50521597  0.16656673  0.95960662     0.42730
H249        H  0.48911916  0.04080472  0.17335016     0.42870
H250        H  0.49370123  0.82533627  0.04566398     0.43230
O251        O  0.12434241  0.43397666  0.00051363    -0.75640
O252        O  0.07026572  0.38625622  0.99301779    -0.54550
C253        C  0.10988834  0.39567238  0.99735668     0.78080
O254        O  0.99827792  0.57193683  0.12044103    -0.60250
O255        O  0.99175144  0.61847289  0.06546534    -0.53270
C256        C  0.99462011  0.60982460  0.10498204     0.70100
O257        O  0.00124413  0.42383088  0.11400054    -0.74800
O258        O  0.99868298  0.38155150  0.05468706    -0.55370
C259        C  0.00054014  0.38694965  0.09495924     0.76100
O260        O  0.11492289  0.57995195  0.99877035    -0.59950
O261        O  0.05596744  0.62327657  0.00206494    -0.53070
C262        C  0.09627545  0.61680278  0.00015347     0.72690
Zr263      Zr  0.09106771  0.50536313  0.99873019     2.54710
O264        O  0.14537673  0.51043294  0.05411697    -0.80510
O265        O  0.14541091  0.50707200  0.94326216    -0.93930
Zr266      Zr  0.99906901  0.49886734  0.08934369     2.64680
O267        O  0.05428874  0.49735749  0.14406146    -0.98890
O268        O  0.94326035  0.49642166  0.14324239    -0.80950
O269        O  0.04787002  0.46214142  0.04309945    -0.84300
O270        O  0.04368099  0.54164892  0.04625804    -2.19010
O271        O  0.00107760  0.57939725  0.88170449    -0.67690
O272        O  0.99771704  0.62202939  0.94093059    -0.52260
C273        C  0.99965914  0.61622703  0.90071120     0.71080
O274        O  0.88374083  0.42419146  0.99611822    -0.60600
O275        O  0.94225786  0.38054177  0.98982490    -0.52580
C276        C  0.90197116  0.38720516  0.99275484     0.72880
O277        O  0.87542181  0.57084083  0.99268957    -0.72000
O278        O  0.93000068  0.61848311  0.99669976    -0.50670
C279        C  0.89041585  0.60911573  0.99293158     0.74260
O280        O  0.00040406  0.43170934  0.87508483    -0.67330
O281        O  0.00465717  0.38510547  0.93019309    -0.54520
C282        C  0.00259364  0.39381932  0.89069647     0.72640
Zr283      Zr  0.00051679  0.50458223  0.90606526     2.77540
O284        O  0.94576454  0.50632355  0.85086603    -0.98080
O285        O  0.05675676  0.50558416  0.85255350    -0.78900
Zr286      Zr  0.90792547  0.49879480  0.99671693     2.70070
O287        O  0.85200530  0.49335766  0.94299098    -0.80140
O288        O  0.85505908  0.49862408  0.05359941    -0.99230
Zr289      Zr  0.00348129  0.42540626  0.99412599     2.21500
Zr290      Zr  0.99522576  0.57811418  0.00121743     2.11130
O291        O  0.95156985  0.54080793  0.95203161    -2.47910
O292        O  0.95538264  0.46215969  0.94911402    -0.79940
O293        O  0.04411433  0.54450240  0.95389924    -0.72130
O294        O  0.95495119  0.45977755  0.04149380    -2.33090
O295        O  0.04870583  0.46540080  0.94972272    -2.29300
O296        O  0.95025481  0.53853856  0.04611886    -0.73890
H297        H  0.05971896  0.56124220  0.06391851     0.78110
H298        H  0.93851495  0.43955203  0.05743654     0.79190
H299        H  0.93425867  0.55991166  0.93522441     0.81420
H300        H  0.06667818  0.44705216  0.93229066     0.79020
H301        H  0.92041116  0.47902447  0.13000609     0.42060
H302        H  0.86233134  0.52360437  0.07176350     0.41030
H303        H  0.86765497  0.49164390  0.91559961     0.40710
H304        H  0.92657880  0.53027824  0.85922859     0.38640
H305        H  0.08091419  0.52004352  0.86696920     0.41770
H306        H  0.14022478  0.48127339  0.92552208     0.36560
H307        H  0.13273037  0.49570904  0.07876571     0.42670
H308        H  0.07310878  0.52162143  0.13736022     0.39090
H309        H  0.96082759  0.51651319  0.82524036     0.44010
H310        H  0.17257823  0.50094337  0.95830137     0.42730
H311        H  0.03937020  0.50627541  0.17056885     0.42870
H312        H  0.82789906  0.50677691  0.03952923     0.43230
C313        C  0.21798195  0.16639410  0.01084552     0.02780
C314        C  0.18474685  0.13657730  0.00899124    -0.13370
C315        C  0.14150801  0.14984943  0.00759318     0.00280
C316        C  0.13279621  0.19447680  0.00699650    -0.11900
C317        C  0.16668325  0.22437507  0.00927552     0.02770
C318        C  0.20869362  0.20983268  0.01267692    -0.11320
H319        H  0.19304197  0.10294811  0.00784967     0.08360
H320        H  0.10015782  0.20597198  0.00441622     0.05890
H321        H  0.23461623  0.23263037  0.01360683     0.05740
C322        C  0.21835961  0.83766445  0.00156463     0.02780
C323        C  0.18774505  0.87084729  0.00127244    -0.13370
C324        C  0.14370965  0.86141253  0.00062101     0.00280
C325        C  0.13140068  0.81815652  0.99936173    -0.11900
C326        C  0.16222753  0.78539027  0.99942806     0.02770
C327        C  0.20546072  0.79526269  0.00097813    -0.11320
H328        H  0.19836596  0.90366879  0.00174473     0.08360
H329        H  0.09791010  0.80961780  0.99840471     0.05890
H330        H  0.22920827  0.76983284  0.00100726     0.05740
C331        C  0.77811342  0.16553927  0.00395281     0.02780
C332        C  0.81010575  0.13370862  0.00305197    -0.13370
C333        C  0.85366605  0.14467470  0.00101940     0.00280
C334        C  0.86435716  0.18816753  0.99899395    -0.11900
C335        C  0.83239152  0.21988673  0.99933521     0.02770
C336        C  0.78943924  0.20853182  0.00246973    -0.11320
H337        H  0.80080081  0.10049692  0.00386300     0.08360
H338        H  0.89750601  0.19766967  0.99672714     0.05890
H339        H  0.76477999  0.23304970  0.00224161     0.05740
C340        C  0.83694068  0.78154940  0.98867289     0.02780
C341        C  0.86876386  0.81343597  0.98989921    -0.13370
C342        C  0.85734738  0.85741935  0.99239868     0.00280
C343        C  0.81314079  0.86803347  0.99387888    -0.11900
C344        C  0.78173980  0.83589269  0.99213107     0.02770
C345        C  0.79398278  0.79326374  0.98925345    -0.11320
H346        H  0.90210374  0.80384853  0.98967614     0.08360
H347        H  0.80295674  0.90108513  0.99637839     0.05890
H348        H  0.76967898  0.76873680  0.98851870     0.05740
C349        C  0.86180873  0.64629797  0.98815690    -0.06480
C350        C  0.84779182  0.66691886  0.02541230    -0.17600
C351        C  0.84092808  0.71116386  0.02666761     0.10720
C352        C  0.84691627  0.73527285  0.98935137    -0.06400
C353        C  0.85477672  0.71350977  0.95074000    -0.17640
C354        C  0.86202468  0.66925923  0.94979913     0.10750
S355        S  0.82498117  0.73501630  0.07688903    -0.32600
S356        S  0.87119803  0.64331966  0.89893999    -0.32610
H357        H  0.86200117  0.60182221  0.91256228     0.28760
H358        H  0.84535877  0.77428506  0.07089941     0.28760
H359        H  0.84496565  0.64880136  0.05432410     0.19350
H360        H  0.85478535  0.73096350  0.92119520     0.19350
C361        C  0.87597960  0.34855610  0.99295425    -0.06480
C362        C  0.87654408  0.32259280  0.95625169    -0.17600
C363        C  0.86054211  0.28114812  0.95689989     0.10720
C364        C  0.84399288  0.26506578  0.99526414    -0.06400
C365        C  0.84152768  0.29166031  0.03147464    -0.17640
C366        C  0.85811099  0.33297595  0.03092701     0.10750
S367        S  0.86376410  0.24988161  0.90829733    -0.32600
S368        S  0.85929117  0.36273672  0.08041717    -0.32610
H369        H  0.90222696  0.37491492  0.07644453     0.28760
H370        H  0.82816913  0.22415789  0.91652212     0.28760
H371        H  0.89111296  0.33414839  0.92731323     0.19350
H372        H  0.82907944  0.27922018  0.06101281     0.19350
C373        C  0.12160969  0.65562034  0.99891160    -0.06480
C374        C  0.12027681  0.67892029  0.96106985    -0.17600
C375        C  0.13437469  0.72101984  0.96001437     0.10720
C376        C  0.14967165  0.74038097  0.99780136    -0.06400
C377        C  0.15279736  0.71654146  0.03520548    -0.17640
C378        C  0.13821085  0.67454945  0.03637165     0.10750
S379        S  0.13051680  0.74866311  0.91002550    -0.32600
S380        S  0.13967246  0.64781613  0.08693614    -0.32610
H381        H  0.10192040  0.62451724  0.08135613     0.28760
H382        H  0.16511909  0.77619142  0.91716448     0.28760
H383        H  0.10644493  0.66475235  0.93255891     0.19350
H384        H  0.16489022  0.73141854  0.06412818     0.19350
C385        C  0.13947521  0.35866884  0.99941592    -0.06480
C386        C  0.14473892  0.33346945  0.96246839    -0.17600
C387        C  0.15784855  0.29070932  0.96513043     0.10720
C388        C  0.15981970  0.27107984  0.00527784    -0.06400
C389        C  0.15979422  0.29725134  0.04190214    -0.17640
C390        C  0.15173378  0.34132835  0.03905939     0.10750
S391        S  0.17424954  0.26340076  0.91702452    -0.32600
S392        S  0.15287246  0.37276161  0.08758811    -0.32610
H393        H  0.16244780  0.41142626  0.06772210     0.28760
H394        H  0.21039251  0.24381747  0.93502683     0.28760
H395        H  0.13784262  0.34692938  0.93154856     0.19350
H396        H  0.16541277  0.28323810  0.07281694     0.19350
C397        C  0.73260671  0.15368163  0.00292279    -0.06480
C398        C  0.71692956  0.13485718  0.96544536    -0.17600
C399        C  0.67458681  0.12159656  0.96253171     0.10720
C400        C  0.64735483  0.12594513  0.99818381    -0.06400
C401        C  0.66213173  0.14715094  0.03487160    -0.17640
C402        C  0.70453567  0.16123468  0.03758514     0.10750
S403        S  0.65738428  0.09787670  0.91290109    -0.32600
S404        S  0.72137068  0.18628327  0.08680602    -0.32610
H405        H  0.76414415  0.17228134  0.08511624     0.28760
H406        H  0.61409818  0.10943671  0.91758314     0.28760
H407        H  0.73798719  0.13018167  0.93832420     0.19350
H408        H  0.64156781  0.14999054  0.06256207     0.19350
C409        C  0.26432278  0.84650632  0.00151112    -0.06480
C410        C  0.28499659  0.84995944  0.96212205    -0.17600
C411        C  0.32889286  0.85749462  0.96019744     0.10720
C412        C  0.35207254  0.86348063  0.99822262    -0.06400
C413        C  0.33238495  0.85555213  0.03729138    -0.17640
C414        C  0.28865459  0.84699557  0.03942453     0.10750
S415        S  0.35396249  0.85904178  0.90863830    -0.32600
S416        S  0.26587637  0.83771744  0.09127646    -0.32610
H417        H  0.22466076  0.85332854  0.08237006     0.28760
H418        H  0.39599950  0.85248591  0.92321931     0.28760
H419        H  0.26685526  0.84668682  0.93282215     0.19350
H420        H  0.35063320  0.85885277  0.06639479     0.19350
C421        C  0.64714295  0.86190130  0.00218130    -0.06480
C422        C  0.66516927  0.85303552  0.96210733    -0.17600
C423        C  0.70917855  0.84510677  0.95788548     0.10720
C424        C  0.73545568  0.84540267  0.99456622    -0.06400
C425        C  0.71617490  0.84814117  0.03486193    -0.17640
C426        C  0.67218009  0.85581658  0.03897864     0.10750
S427        S  0.73019740  0.83776178  0.90477311    -0.32600
S428        S  0.64925155  0.85645049  0.09167932    -0.32610
H429        H  0.60656083  0.85156085  0.07852456     0.28760
H430        H  0.77003331  0.85668825  0.91276283     0.28760
H431        H  0.64595140  0.85708983  0.93365323     0.19350
H432        H  0.73548187  0.84393370  0.06319622     0.19350
C433        C  0.34869818  0.12563711  0.00143996    -0.06480
C434        C  0.32110672  0.12088003  0.96651003    -0.17600
C435        C  0.27874842  0.13485824  0.96837910     0.10720
C436        C  0.26295024  0.15288188  0.00669989    -0.06400
C437        C  0.29084449  0.15935098  0.04121576    -0.17640
C438        C  0.33364022  0.14603984  0.03892470     0.10750
S439        S  0.24634347  0.12745725  0.92124264    -0.32600
S440        S  0.36613413  0.15223521  0.08598832    -0.32610
H441        H  0.40427399  0.16009230  0.06401699     0.28760
H442        H  0.21980669  0.16331044  0.92787715     0.28760
H443        H  0.33212079  0.10408684  0.93823066     0.19350
H444        H  0.27888939  0.17384314  0.07045086     0.19350
C445        C  0.73916061  0.99925479  0.84568434    -0.06480
C446        C  0.73297296  0.97331450  0.88075521    -0.17600
C447        C  0.69359681  0.97086307  0.90056293     0.10720
C448        C  0.65662281  0.98879970  0.88087559    -0.06270
C449        C  0.66178913  0.01101620  0.84266338    -0.17640
C450        C  0.70290070  0.01847115  0.82616486     0.10750
S451        S  0.69378285  0.94856942  0.95331464    -0.32600
S452        S  0.70683889  0.05599239  0.78332649    -0.32610
H453        H  0.74589233  0.07344822  0.79697501     0.28760
H454        H  0.73821652  0.94494015  0.95946423     0.28760
H455        H  0.76006265  0.95671126  0.89449390     0.19350
H456        H  0.63436237  0.02653030  0.82826738     0.19350
C457        C  0.99729842  0.26811296  0.84516326    -0.06480
C458        C  0.96289882  0.29547396  0.83588393    -0.17600
C459        C  0.96518206  0.33920220  0.84551849     0.10720
C460        C  0.00316421  0.35579506  0.86335662    -0.06400
C461        C  0.03868799  0.32874541  0.86867193    -0.17640
C462        C  0.03606207  0.28527978  0.85970369     0.10750
S463        S  0.91798301  0.37134566  0.83664326    -0.32600
S464        S  0.08251014  0.25259329  0.86910674    -0.32610
H465        H  0.07753916  0.22618418  0.83293282     0.28760
H466        H  0.92246498  0.39843931  0.87233009     0.28760
H467        H  0.93356669  0.28239289  0.82299462     0.19350
H468        H  0.06771002  0.34106582  0.88304628     0.19350
C469        C  0.26672252  0.00920122  0.84623909    -0.06480
C470        C  0.29235878  0.04576416  0.84516967    -0.17600
C471        C  0.33605434  0.04352293  0.85528769     0.10720
C472        C  0.35433739  0.00401450  0.86691191    -0.06400
C473        C  0.32934663  0.96723103  0.86436023    -0.17640
C474        C  0.28596467  0.96920105  0.85403550     0.10750
S475        S  0.36625251  0.09225466  0.85510425    -0.32600
S476        S  0.25655913  0.91986227  0.85394148    -0.32610
H477        H  0.22667646  0.93124919  0.82255329     0.28760
H478        H  0.40645725  0.07270391  0.84949502     0.28760
H479        H  0.27802854  0.07631458  0.83748195     0.19350
H480        H  0.34326774  0.93705325  0.87320909     0.19350
C481        C  0.00655932  0.74104852  0.84932064    -0.06480
C482        C  0.03260717  0.70857173  0.83152862    -0.17600
C483        C  0.02940766  0.66624523  0.84513995     0.10720
C484        C  0.99928913  0.65630380  0.87682888    -0.06400
C485        C  0.97202352  0.68866126  0.89265716    -0.17640
C486        C  0.97448253  0.73029877  0.87858665     0.10750
S487        S  0.06661537  0.62752188  0.82359038    -0.32600
S488        S  0.93556871  0.76807208  0.89918610    -0.32610
H489        H  0.93089965  0.79055359  0.86091377     0.28760
H490        H  0.07652434  0.60914324  0.86308448     0.28760
H491        H  0.05677234  0.71657932  0.80830203     0.19350
H492        H  0.94939779  0.68178121  0.91764264     0.19350
C493        C  0.26206253  0.00788845  0.15551673    -0.06480
C494        C  0.28272352  0.96804662  0.15361344    -0.17600
C495        C  0.32549504  0.96451090  0.14114287     0.10720
C496        C  0.34782329  0.00140041  0.12942064    -0.06400
C497        C  0.32779064  0.04143853  0.13337831    -0.17640
C498        C  0.28534137  0.04520534  0.14699800     0.10750
S499        S  0.34923297  0.91199725  0.13895601    -0.32600
S500        S  0.26231548  0.09812622  0.15063382    -0.32610
H501        H  0.23141267  0.08921615  0.18164436     0.28760
H502        H  0.39191008  0.92520729  0.14257493     0.28760
H503        H  0.26516979  0.93945589  0.16125895     0.19350
H504        H  0.34474351  0.06974294  0.12388243     0.19350
C505        C  0.00340957  0.73606632  0.14744532    -0.06480
C506        C  0.96365172  0.71948641  0.13588077    -0.17600
C507        C  0.95839195  0.67573241  0.12962466     0.10720
C508        C  0.99379599  0.64785563  0.13263154    -0.06400
C509        C  0.03289761  0.66387700  0.14730901    -0.17640
C510        C  0.03797619  0.70770197  0.15524898     0.10750
S511        S  0.90595589  0.65690531  0.11622042    -0.32600
S512        S  0.08952888  0.72547887  0.17386655    -0.32610
H513        H  0.08705426  0.76658810  0.15660207     0.28760
H514        H  0.91336321  0.61415973  0.12741784     0.28760
H515        H  0.93633101  0.74070485  0.13246898     0.19350
H516        H  0.06037962  0.64274399  0.14947604     0.19350
C517        C  0.73492852  0.99956993  0.15534288    -0.06480
C518        C  0.70457706  0.02803401  0.17332676    -0.17600
C519        C  0.66123147  0.02610265  0.16173433     0.10720
C520        C  0.64804408  0.99452968  0.13228483    -0.06400
C521        C  0.67807859  0.96441262  0.11717457    -0.17640
C522        C  0.72086430  0.96605637  0.12873764     0.10750
S523        S  0.62542610  0.06634175  0.18304346    -0.32600
S524        S  0.75589462  0.92495619  0.10755945    -0.32610
H525        H  0.78221234  0.92274341  0.14385355     0.28760
H526        H  0.60093407  0.07143606  0.14587356     0.28760
H527        H  0.71507813  0.05330628  0.19467961     0.19350
H528        H  0.66859073  0.94112520  0.09339946     0.19350
C529        C  0.86464393  0.99775030  0.64220379    -0.06480
C530        C  0.85489951  0.95955415  0.66269747    -0.17600
C531        C  0.84421829  0.95931623  0.70606760     0.10720
C532        C  0.84643805  0.99780109  0.73006644    -0.06400
C533        C  0.85167471  0.03634210  0.70854014    -0.17640
C534        C  0.85946226  0.03673944  0.66461864     0.10750
S535        S  0.82719209  0.90922931  0.72804856    -0.32600
S536        S  0.86713184  0.08767739  0.63973757    -0.32610
H537        H  0.85795231  0.07341565  0.59811049     0.28760
H538        H  0.83496268  0.91872742  0.77118123     0.28760
H539        H  0.85785311  0.92951893  0.64539081     0.19350
H540        H  0.85022151  0.06629622  0.72616412     0.19350
C541        C  0.00102373  0.15086032  0.73904704    -0.06480
C542        C  0.97680898  0.11462813  0.73133401    -0.17600
C543        C  0.97737172  0.09408303  0.69214391     0.10720
C544        C  0.99611519  0.11431223  0.65624268    -0.06400
C545        C  0.01748378  0.15308494  0.66290091    -0.17640
C546        C  0.02220704  0.17030275  0.70435755     0.10750
S547        S  0.95767558  0.03999571  0.69177277    -0.32600
S548        S  0.05868940  0.21411076  0.71110976    -0.32610
H549        H  0.07334957  0.20170252  0.75152594     0.28760
H550        H  0.95496775  0.03381558  0.73601630     0.28760
H551        H  0.95913495  0.10062356  0.75723806     0.19350
H552        H  0.03398134  0.16772014  0.63656372     0.19350
C553        C  0.12544338  0.99239737  0.65453828    -0.06480
C554        C  0.14295476  0.03168598  0.66704102    -0.17600
C555        C  0.15555536  0.03918011  0.70936812     0.10720
C556        C  0.15108082  0.00647176  0.73959733    -0.06400
C557        C  0.13547412  0.96665773  0.72652033    -0.17640
C558        C  0.12290798  0.95926582  0.68442809     0.10750
S559        S  0.17449037  0.09174516  0.72333302    -0.32600
S560        S  0.10266465  0.90720434  0.67096238    -0.32610
H561        H  0.11244451  0.90889003  0.62728258     0.28760
H562        H  0.15957612  0.09201861  0.76558470     0.28760
H563        H  0.14387004  0.05763376  0.64455149     0.19350
H564        H  0.13291913  0.94115766  0.74939055     0.19350
C565        C  0.99017886  0.86451042  0.64799540    -0.06480
C566        C  0.96201957  0.88169247  0.67881312    -0.17600
C567        C  0.96718604  0.87333411  0.72194219     0.10720
C568        C  0.00084010  0.84640619  0.73506439    -0.06400
C569        C  0.02590811  0.82524727  0.70388850    -0.17640
C570        C  0.02111846  0.83422881  0.66049142     0.10750
S571        S  0.93066250  0.89916002  0.75859688    -0.32600
S572        S  0.05726220  0.80849674  0.62338826    -0.32610
H573        H  0.06695805  0.84549134  0.60067215     0.28760
H574        H  0.92685522  0.86378732  0.78546088     0.28760
H575        H  0.93775123  0.90467200  0.66945085     0.19350
H576        H  0.05091281  0.80327402  0.71358495     0.19350
C577        C  0.13897642  0.99828953  0.35745080    -0.06480
C578        C  0.14329619  0.03853028  0.33885160    -0.17600
C579        C  0.15063854  0.04237569  0.29492441     0.10720
C580        C  0.15436487  0.00517076  0.26920330    -0.06400
C581        C  0.15581840  0.96527695  0.28897816    -0.17640
C582        C  0.14850617  0.96153983  0.33281103     0.10750
S583        S  0.15233356  0.09545373  0.27341707    -0.32600
S584        S  0.15116051  0.90913531  0.35572917    -0.32610
H585        H  0.15677535  0.92318076  0.39807261     0.28760
H586        H  0.13469742  0.08509236  0.23347180     0.28760
H587        H  0.13617995  0.06700648  0.35759341     0.19350
H588        H  0.16258427  0.93686002  0.27007970     0.19350
C589        C  0.00982812  0.86624837  0.34721515    -0.06480
C590        C  0.04205201  0.88020236  0.31962626    -0.17600
C591        C  0.04183006  0.86990704  0.27645458     0.10720
C592        C  0.00808602  0.84552928  0.25977977    -0.06400
C593        C  0.97735060  0.82878535  0.28764923    -0.17640
C594        C  0.97760325  0.83924438  0.33122994     0.10750
S595        S  0.08497686  0.88959161  0.24426999    -0.32600
S596        S  0.93486669  0.81926504  0.36373590    -0.32610
H597        H  0.93071531  0.85534557  0.39044814     0.28760
H598        H  0.08725656  0.85376363  0.21688346     0.28760
H599        H  0.06616396  0.90185647  0.33143444     0.19350
H600        H  0.95194530  0.80898668  0.27501399     0.19350
C601        C  0.87803598  0.00047083  0.34683308    -0.06480
C602        C  0.87996981  0.03960520  0.32574045    -0.17600
C603        C  0.86593254  0.04339061  0.28370935     0.10720
C604        C  0.85020772  0.00703893  0.26214012    -0.06400
C605        C  0.84691540  0.96824948  0.28366057    -0.17640
C606        C  0.86079289  0.96453189  0.32578323     0.10750
S607        S  0.87064415  0.09479929  0.25893459    -0.32600
S608        S  0.85918958  0.91242013  0.34941485    -0.32610
H609        H  0.85700094  0.92659320  0.39198486     0.28760
H610        H  0.83619519  0.08991416  0.23053845     0.28760
H611        H  0.89431755  0.06694700  0.34154831     0.19350
H612        H  0.83467969  0.94036780  0.26703575     0.19350
C613        C  0.00190774  0.34667355  0.11917766    -0.06480
C614        C  0.97672000  0.34188465  0.15578710    -0.17600
C615        C  0.96964459  0.30115704  0.17279928     0.10720
C616        C  0.99010523  0.26490393  0.15409124    -0.06400
C617        C  0.01781789  0.27066196  0.12002695    -0.17640
C618        C  0.02270278  0.31001998  0.10165506     0.10750
S619        S  0.93173426  0.29753022  0.21571470    -0.32600
S620        S  0.05433180  0.30959275  0.05412369    -0.32610
H621        H  0.07070292  0.34980514  0.06423631     0.28760
H622        H  0.91579664  0.25738411  0.20344862     0.28760
H623        H  0.95973283  0.36925743  0.16901090     0.19350
H624        H  0.03508027  0.24361567  0.10636965     0.19350
C625        C  0.99879650  0.15413908  0.26744261    -0.06480
C626        C  0.02504656  0.11852140  0.27278561    -0.17600
C627        C  0.02707054  0.09753531  0.31130486     0.10720
C628        C  0.00968090  0.11718632  0.34883614    -0.06400
C629        C  0.98824332  0.15644029  0.34483423    -0.17640
C630        C  0.98075488  0.17414882  0.30426610     0.10750
S631        S  0.04689075  0.04317432  0.30874794    -0.32600
S632        S  0.94457592  0.21907177  0.30019296    -0.32610
H633        H  0.94083277  0.22775413  0.34412607     0.28760
H634        H  0.04947646  0.03810419  0.26421488     0.28760
H635        H  0.04125270  0.10466933  0.24539981     0.19350
H636        H  0.97357392  0.17076219  0.37284129     0.19350
loop_ 
_geom_bond_atom_site_label_1 
_geom_bond_atom_site_label_2 
_geom_bond_distance 
_geom_bond_site_symmetry_2 
_ccdc_geom_bond_type 
O1          Zr37   2.461       .  S
O1           C12   1.297       .  A
O2          Zr36   2.451   1_554  S
O2           C13   1.295       .  A
O3           Zr9   2.431       .  S
O3           C14   1.292       .  A
O4           Zr9   2.465   1_455  S
O4           C15   1.297       .  A
O5          Zr39   2.463       .  S
O5           C15   1.298       .  A
O6          Zr38   2.471   1_554  S
O6           C14   1.299       .  A
O7           Zr9   2.468   1_565  S
O7           C13   1.298   1_655  A
O8           Zr9   2.456       .  S
O8           C12   1.295       .  A
Zr9          O10   2.339   1_645  S
Zr9          O11   2.346       .  S
Zr9          O19   2.353   1_655  S
Zr9          O17   2.359   1_545  S
O10         Zr36   2.354   1_554  S
O10         Zr39   2.352   1_565  S
O11         Zr37   2.344       .  S
O11         Zr38   2.352   1_554  S
C12          C57   1.502       .  S
C13         C137   1.501       .  S
C14         C128   1.494       .  S
C15         C146   1.505       .  S
H16          O17   0.966       .  S
O17         Zr36   2.343   1_654  S
O17         Zr38   2.355   1_564  S
H18          O19   0.966       .  S
O19         Zr37   2.354   1_455  S
O19         Zr39   2.351       .  S
O20         Zr36   2.446       .  S
O20          C43   1.295       .  A
O21         Zr37   2.460   1_456  S
O21          C44   1.296       .  A
O22         Zr38   2.476   1_565  S
O22          C45   1.300       .  A
O23         Zr39   2.462   1_565  S
O23          C46   1.297       .  A
O24         Zr39   2.466       .  S
O24          C47   1.299       .  A
O25         Zr38   2.448       .  S
O25          C48   1.295   1_556  A
O26         Zr40   2.459   1_655  S
O26          C49   1.295       .  A
O27         Zr40   2.444       .  S
O27          C50   1.294       .  A
O28         Zr38   2.479       .  S
O28          C49   1.302       .  A
O29         Zr39   2.464   1_556  S
O29          C50   1.297       .  A
O30         Zr36   2.477   1_655  S
O30          C45   1.299       .  A
O31         Zr37   2.448       .  S
O31          C48   1.295       .  A
O32         Zr37   2.472   1_455  S
O32          C47   1.298       .  A
O33         Zr36   2.439       .  S
O33          C46   1.294   1_556  A
O34         Zr40   2.462   1_565  S
O34          C43   1.296       .  A
O35         Zr40   2.452       .  S
O35          C44   1.296       .  A
Zr36         O42   2.347   1_455  S
Zr36         O54   2.353       .  S
Zr37         O41   2.347   1_654  S
Zr37         O52   2.358   1_554  S
Zr38         O42   2.347   1_545  S
Zr38         O52   2.356       .  S
Zr39         O41   2.347   1_554  S
Zr39         O54   2.352   1_544  S
Zr40         O41   2.350       .  S
Zr40         O42   2.355   1_445  S
Zr40         O54   2.344   1_545  S
Zr40         O52   2.348   1_455  S
C43         C157   1.496       .  S
C44         C173   1.499       .  S
C45         C342   1.515       .  S
C46         C324   1.493       .  S
C47         C315   1.510       .  S
C48         C333   1.491       .  S
C49         C182   1.509       .  S
C50         C164   1.498       .  S
H51          O52   0.966       .  S
H53          O54   0.965       .  S
C55         C625   1.494       .  S
C55          C56   1.422       .  A
C55          C60   1.399       .  A
C56          C57   1.406       .  A
C56          H61   1.083       .  S
C57          C58   1.401       .  A
C58          C59   1.412       .  A
C58          H62   1.084       .  S
C59         C616   1.481       .  S
C59          C60   1.397       .  A
C60          H63   1.082       .  S
O64         Zr76   2.515       .  S
O64          C66   1.301       .  A
O65        Zr102   2.338   1_545  S
O65          C66   1.266       .  A
C66         C628   1.489       .  S
O67         Zr79   2.467       .  S
O67          C69   1.290       .  A
O68        Zr103   2.386   1_455  S
O68          C69   1.278       .  A
C69         C553   1.468       .  S
O70         Zr79   2.458       .  S
O70          C72   1.288       .  A
O71        Zr102   2.404       .  S
O71          C72   1.280       .  A
C72         C577   1.474       .  S
O73         Zr76   2.515   1_655  S
O73          C75   1.300       .  A
O74        Zr103   2.337   1_445  S
O74          C75   1.266   1_455  A
C75         C544   1.486       .  S
Zr76         O82   2.388       .  S
Zr76         O83   2.378       .  S
Zr76        O106   2.390   1_455  S
Zr76        O108   2.378   1_455  S
Zr76         O77   2.434       .  S
Zr76         O78   2.436   1_455  S
O77         H120   0.990       .  S
O78         H119   0.990       .  S
O78         H123   0.990       .  S
Zr79         O83   2.370   1_565  S
Zr79         O82   2.384   1_565  S
Zr79        O107   2.383       .  S
Zr79        O109   2.385       .  S
Zr79         O80   2.435   1_565  S
Zr79         O81   2.435       .  S
O80         H121   0.990       .  S
O80         H124   0.990       .  S
O81         H114   0.990       .  S
O82        Zr102   2.365   1_545  S
O83        Zr103   2.367   1_445  S
O83         H110   0.966       .  S
O84         Zr96   2.450       .  S
O84          C86   1.286       .  A
O85        Zr103   2.403       .  S
O85          C86   1.279       .  A
C86         C529   1.469       .  S
O87         Zr99   2.476       .  S
O87          C89   1.292       .  A
O88        Zr102   2.350       .  S
O88          C89   1.273       .  A
C89         C589   1.465       .  S
O90         Zr99   2.479   1_655  S
O90          C92   1.293       .  A
O91        Zr103   2.349       .  S
O91          C92   1.273       .  A
C92         C565   1.469       .  S
O93         Zr96   2.452       .  S
O93          C95   1.288       .  A
O94        Zr102   2.385   1_655  S
O94          C95   1.277       .  A
C95         C601   1.459   1_565  S
Zr96        O104   2.378       .  S
Zr96        O105   2.382       .  S
Zr96        O108   2.372   1_565  S
Zr96        O106   2.386   1_565  S
Zr96         O97   2.435       .  S
Zr96         O98   2.434   1_565  S
O97         H117   0.990       .  S
O97         H122   0.990       .  S
O98         H118   0.990       .  S
Zr99        O105   2.384   1_455  S
Zr99        O104   2.380   1_455  S
Zr99        O109   2.385       .  S
Zr99        O107   2.384       .  S
Zr99        O100   2.434   1_455  S
Zr99        O101   2.434       .  S
O100        H116   0.990       .  S
O101        H115   0.990       .  S
O101        H125   0.990       .  S
Zr102       O105   2.357   1_455  S
Zr102       O107   2.360       .  S
Zr102       O108   2.367   1_465  S
Zr103       O104   2.359       .  S
Zr103       O106   2.366   1_565  S
Zr103       O109   2.357   1_655  S
O104        H112   0.966       .  S
O107        H111   0.966       .  S
O108        H113   0.966       .  S
C126        C604   1.468       .  S
C126        C127   1.402       .  A
C126        C131   1.391       .  A
C127        C128   1.412       .  A
C127        H132   1.084       .  S
C128        C129   1.409       .  A
C129        C130   1.412       .  A
C129        H133   1.083       .  S
C130        C517   1.477   1_545  S
C130        C131   1.394       .  A
C131        H134   1.085       .  S
C135        C505   1.472       .  S
C135        C136   1.411       .  A
C135        C140   1.388       .  A
C136        C137   1.417       .  A
C136        H141   1.083       .  S
C137        C138   1.412       .  A
C138        C139   1.410       .  A
C138        H142   1.083       .  S
C139        C592   1.472       .  S
C139        C140   1.388       .  A
C140        H143   1.085       .  S
C144        C493   1.470       .  S
C144        C145   1.404       .  A
C144        C149   1.391       .  A
C145        C146   1.413       .  A
C145        H150   1.083       .  S
C146        C147   1.420       .  A
C147        C148   1.416       .  A
C147        H151   1.083       .  S
C148        C580   1.480       .  S
C148        C149   1.392       .  A
C149        H152   1.085       .  S
C153        C568   1.479       .  S
C153        C154   1.393       .  A
C153        C158   1.414       .  A
C154        C155   1.389       .  A
C154        H159   1.085       .  S
C155        C481   1.474       .  S
C155        C156   1.406       .  A
C156        C157   1.408       .  A
C156        H160   1.083       .  S
C157        C158   1.410       .  A
C158        H161   1.083       .  S
C162        C556   1.475       .  S
C162        C163   1.403       .  A
C162        C167   1.394       .  A
C163        C164   1.412       .  A
C163        H168   1.084       .  S
C164        C165   1.413       .  A
C165        C166   1.412       .  A
C165        H169   1.083       .  S
C166        C469   1.475       .  S
C166        C167   1.396       .  A
C167        H170   1.085       .  S
C171        C541   1.483       .  S
C171        C172   1.413       .  A
C171        C176   1.391   1_455  A
C172        C173   1.408       .  A
C172        H177   1.083       .  S
C173        C174   1.409   1_455  A
C174        C175   1.412       .  A
C174        H178   1.083       .  S
C175        C457   1.467       .  S
C175        C176   1.392       .  A
C176        H179   1.083       .  S
C180        C532   1.476       .  S
C180        C181   1.418   1_565  A
C180        C185   1.393       .  A
C181        C182   1.418       .  A
C181        H186   1.083       .  S
C182        C183   1.408       .  A
C183        C184   1.414       .  A
C183        H187   1.083       .  S
C184        C445   1.486   1_545  S
C184        C185   1.391   1_545  A
C185        H188   1.083       .  S
O189       Zr201   2.467       .  S
O189        C191   1.291       .  A
O190       Zr227   2.391   1_545  S
O190        C191   1.280       .  A
C191        C400   1.468   1_554  S
O192       Zr204   2.461       .  S
O192        C194   1.290       .  A
O193       Zr228   2.394   1_554  S
O193        C194   1.280       .  A
C194        C496   1.464   1_565  S
O195       Zr204   2.484       .  S
O195        C197   1.294       .  A
O196       Zr227   2.347   1_545  S
O196        C197   1.273   1_545  A
C197        C520   1.468       .  S
O198       Zr201   2.465       .  S
O198        C200   1.291       .  A
O199       Zr228   2.379   1_544  S
O199        C200   1.278       .  A
C200        C433   1.465       .  S
Zr201       O207   2.381       .  S
Zr201       O208   2.375       .  S
Zr201       O231   2.379   1_554  S
Zr201       O233   2.376   1_554  S
Zr201       O202   2.434       .  S
Zr201       O203   2.435   1_554  S
O202        H245   0.990       .  S
O203        H244   0.990       .  S
O203        H248   0.990       .  S
Zr204       O208   2.379   1_565  S
Zr204       O207   2.375   1_565  S
Zr204       O232   2.374       .  S
Zr204       O234   2.391       .  S
Zr204       O205   2.435   1_565  S
Zr204       O206   2.434       .  S
O205        H246   0.990       .  S
O205        H249   0.990       .  S
O206        H239   0.990       .  S
O207       Zr227   2.360   1_545  S
O208       Zr228   2.374   1_544  S
O208        H235   0.966       .  S
O209       Zr221   2.473   1_545  S
O209        C211   1.293       .  A
O210       Zr228   2.388   1_545  S
O210        C211   1.279       .  A
C211        C472   1.470       .  S
O212       Zr224   2.447   1_556  S
O212        C214   1.286   1_556  A
O213       Zr227   2.417       .  S
O213        C214   1.283       .  A
C214        C421   1.472       .  S
O215       Zr224   2.449       .  S
O215        C217   1.287   1_554  A
O216       Zr228   2.395       .  S
O216        C217   1.280       .  A
C217        C412   1.461       .  S
O218       Zr221   2.501       .  S
O218        C220   1.297       .  A
O219       Zr227   2.345   1_556  S
O219        C220   1.269       .  A
C220        C448   1.486       .  S
Zr221       O229   2.387       .  S
Zr221       O230   2.379       .  S
Zr221       O233   2.368   1_565  S
Zr221       O231   2.388   1_565  S
Zr221       O222   2.435       .  S
Zr221       O223   2.434   1_565  S
O222        H242   0.990       .  S
O222        H247   0.990       .  S
O223        H243   0.990       .  S
Zr224       O230   2.382   1_554  S
Zr224       O229   2.379   1_554  S
Zr224       O234   2.380       .  S
Zr224       O232   2.379       .  S
Zr224       O225   2.434   1_554  S
Zr224       O226   2.434       .  S
O225        H241   0.990       .  S
O226        H240   0.990       .  S
O226        H250   0.990       .  S
Zr227       O230   2.362   1_554  S
Zr227       O232   2.361       .  S
Zr227       O233   2.364   1_564  S
Zr228       O229   2.372       .  S
Zr228       O231   2.370   1_565  S
Zr228       O234   2.367   1_556  S
O229        H237   0.966       .  S
O232        H236   0.966       .  S
O233        H238   0.965       .  S
O251       Zr263   2.461   1_554  S
O251        C253   1.289   1_554  A
O252       Zr289   2.414       .  S
O252        C253   1.283       .  A
C253        C385   1.480       .  S
O254       Zr266   2.477       .  S
O254        C256   1.292       .  A
O255       Zr290   2.368       .  S
O255        C256   1.276       .  A
C256        C508   1.465       .  S
O257       Zr266   2.485   1_455  S
O257        C259   1.295       .  A
O258       Zr289   2.365   1_654  S
O258        C259   1.274   1_655  A
C259        C613   1.482       .  S
O260       Zr263   2.459       .  S
O260        C262   1.290   1_556  A
O261       Zr290   2.378   1_455  S
O261        C262   1.277       .  A
C262        C373   1.458   1_554  S
Zr263       O269   2.383   1_556  S
Zr263       O270   2.376   1_556  S
Zr263       O293   2.377       .  S
Zr263       O295   2.380       .  S
Zr263       O264   2.434   1_556  S
Zr263       O265   2.435       .  S
O264        H307   0.990       .  S
O265        H306   0.990       .  S
O265        H310   0.990       .  S
Zr266       O270   2.378   1_655  S
Zr266       O269   2.386   1_655  S
Zr266       O294   2.374       .  S
Zr266       O296   2.392       .  S
Zr266       O267   2.435   1_655  S
Zr266       O268   2.434       .  S
O267        H308   0.990       .  S
O267        H311   0.990       .  S
O268        H301   0.990       .  S
O269       Zr289   2.364   1_554  S
O270       Zr290   2.368   1_455  S
O270        H297   0.965       .  S
O271       Zr283   2.475       .  S
O271        C273   1.293   1_455  A
O272       Zr290   2.355   1_556  S
O272        C273   1.274       .  A
C273        C484   1.471       .  S
O274       Zr286   2.463       .  S
O274        C276   1.291       .  A
O275       Zr289   2.387   1_655  S
O275        C276   1.279       .  A
C276        C361   1.464       .  S
O277       Zr286   2.473       .  S
O277        C279   1.291       .  A
O278       Zr290   2.397   1_556  S
O278        C279   1.280       .  A
C279        C349   1.472       .  S
O280       Zr283   2.470       .  S
O280        C282   1.291       .  A
O281       Zr289   2.357       .  S
O281        C282   1.274       .  A
C282        C460   1.459       .  S
Zr283       O291   2.376   1_455  S
Zr283       O292   2.380   1_455  S
Zr283       O295   2.380       .  S
Zr283       O293   2.378       .  S
Zr283       O284   2.435   1_455  S
Zr283       O285   2.434       .  S
O284        H304   0.990       .  S
O284        H309   0.990       .  S
O285        H305   0.990       .  S
Zr286       O292   2.384       .  S
Zr286       O291   2.376       .  S
Zr286       O296   2.383   1_556  S
Zr286       O294   2.375   1_556  S
Zr286       O287   2.433       .  S
Zr286       O288   2.434   1_556  S
O287        H303   0.990       .  S
O288        H302   0.990       .  S
O288        H312   0.990       .  S
Zr289       O292   2.365   1_455  S
Zr289       O294   2.369   1_456  S
Zr289       O295   2.364       .  S
Zr290       O291   2.364   1_554  S
Zr290       O293   2.364   1_654  S
Zr290       O296   2.362       .  S
O291        H299   0.965       .  S
O294        H298   0.964       .  S
O295        H300   0.966       .  S
C313        C436   1.471       .  S
C313        C314   1.404       .  A
C313        C318   1.390       .  A
C314        C315   1.412       .  A
C314        H319   1.083       .  S
C315        C316   1.423       .  A
C316        C317   1.421       .  A
C316        H320   1.083       .  S
C317        C388   1.484       .  S
C317        C318   1.392       .  A
C318        H321   1.085       .  S
C322        C409   1.466       .  S
C322        C323   1.408       .  A
C322        C327   1.392       .  A
C323        C324   1.411       .  A
C323        H328   1.083       .  S
C324        C325   1.412   1_554  A
C325        C326   1.403       .  A
C325        H329   1.083       .  S
C326        C376   1.467       .  S
C326        C327   1.390   1_556  A
C327        H330   1.085       .  S
C331        C397   1.474       .  S
C331        C332   1.407       .  A
C331        C336   1.397       .  A
C332        C333   1.409       .  A
C332        H337   1.084       .  S
C333        C334   1.408   1_554  A
C334        C335   1.404       .  A
C334        H338   1.084       .  S
C335        C364   1.472       .  S
C335        C336   1.396   1_556  A
C336        H339   1.084       .  S
C340        C352   1.481       .  S
C340        C341   1.416       .  A
C340        C345   1.390       .  A
C341        C342   1.422       .  A
C341        H346   1.083       .  S
C342        C343   1.420       .  A
C343        C344   1.413       .  A
C343        H347   1.083       .  S
C344        C424   1.477       .  S
C344        C345   1.388       .  A
C345        H348   1.085       .  S
C349        C350   1.398   1_556  A
C349        C354   1.410       .  A
C350        C351   1.401       .  A
C350        H359   1.080       .  S
C351        C352   1.415   1_554  A
C351        S355   1.805       .  S
C352        C353   1.404       .  A
C353        C354   1.403       .  A
C353        H360   1.082       .  S
C354        S356   1.804       .  S
S355        H358   1.405       .  S
S356        H357   1.406       .  S
C361        C362   1.402       .  A
C361        C366   1.411   1_556  A
C362        C363   1.396       .  A
C362        H371   1.084       .  S
C363        C364   1.411       .  A
C363        S367   1.805       .  S
C364        C365   1.402   1_556  A
C365        C366   1.399       .  A
C365        H372   1.084       .  S
C366        S368   1.802       .  S
S367        H370   1.406       .  S
S368        H369   1.405       .  S
C373        C374   1.402       .  A
C373        C378   1.410   1_556  A
C374        C375   1.395       .  A
C374        H383   1.085       .  S
C375        C376   1.410       .  A
C375        S379   1.805       .  S
C376        C377   1.402   1_556  A
C377        C378   1.397       .  A
C377        H384   1.084       .  S
C378        S380   1.804       .  S
S379        H382   1.405       .  S
S380        H381   1.403       .  S
C385        C386   1.403       .  A
C385        C390   1.415   1_556  A
C386        C387   1.402       .  A
C386        H395   1.084       .  S
C387        C388   1.410   1_556  A
C387        S391   1.799       .  S
C388        C389   1.403       .  A
C389        C390   1.406       .  A
C389        H396   1.084       .  S
C390        S392   1.803       .  S
S391        H394   1.403       .  S
S392        H393   1.404       .  S
C397        C398   1.399   1_554  A
C397        C402   1.415       .  A
C398        C399   1.394       .  A
C398        H407   1.084       .  S
C399        C400   1.411       .  A
C399        S403   1.801       .  S
C400        C401   1.402   1_556  A
C401        C402   1.403       .  A
C401        H408   1.084       .  S
C402        S404   1.804       .  S
S403        H406   1.406       .  S
S404        H405   1.405       .  S
C409        C410   1.401   1_554  A
C409        C414   1.412       .  A
C410        C411   1.396       .  A
C410        H419   1.084       .  S
C411        C412   1.407       .  A
C411        S415   1.800       .  S
C412        C413   1.398   1_556  A
C413        C414   1.398       .  A
C413        H420   1.081       .  S
C414        S416   1.805       .  S
S415        H418   1.406       .  S
S416        H417   1.404       .  S
C421        C422   1.402   1_554  A
C421        C426   1.409       .  A
C422        C423   1.403       .  A
C422        H431   1.084       .  S
C423        C424   1.414       .  A
C423        S427   1.804       .  S
C424        C425   1.403   1_556  A
C425        C426   1.401       .  A
C425        H432   1.083       .  S
C426        S428   1.803       .  S
S427        H430   1.405       .  S
S428        H429   1.406       .  S
C433        C434   1.402   1_554  A
C433        C438   1.411       .  A
C434        C435   1.393       .  A
C434        H443   1.081       .  S
C435        C436   1.410   1_556  A
C435        S439   1.806       .  S
C436        C437   1.404       .  A
C437        C438   1.400       .  A
C437        H444   1.084       .  S
C438        S440   1.801       .  S
S439        H442   1.405       .  S
S440        H441   1.403       .  S
C445        C446   1.391       .  A
C445        C450   1.421   1_565  A
C446        C447   1.383       .  A
C446        H455   1.083       .  S
C447        C448   1.425       .  A
C447        S451   1.805       .  S
C448        C449   1.404   1_565  A
C449        C450   1.409       .  A
C449        H456   1.084       .  S
C450        S452   1.802       .  S
S451        H454   1.407       .  S
S452        H453   1.407       .  S
C457        C458   1.403       .  A
C457        C462   1.404   1_655  A
C458        C459   1.402       .  A
C458        H467   1.084       .  S
C459        C460   1.413   1_655  A
C459        S463   1.804       .  S
C460        C461   1.403       .  A
C461        C462   1.390       .  A
C461        H468   1.085       .  S
C462        S464   1.797       .  S
S463        H466   1.404       .  S
S464        H465   1.405       .  S
C469        C470   1.405       .  A
C469        C474   1.410   1_545  A
C470        C471   1.404       .  A
C470        H479   1.084       .  S
C471        C472   1.411       .  A
C471        S475   1.802       .  S
C472        C473   1.399   1_545  A
C473        C474   1.396       .  A
C473        H480   1.077       .  S
C474        S476   1.805       .  S
S475        H478   1.404       .  S
S476        H477   1.404       .  S
C481        C482   1.409       .  A
C481        C486   1.407   1_455  A
C482        C483   1.403       .  A
C482        H491   1.084       .  S
C483        C484   1.410   1_455  A
C483        S487   1.800       .  S
C484        C485   1.406       .  A
C485        C486   1.386       .  A
C485        H492   1.082       .  S
C486        S488   1.805       .  S
S487        H490   1.406       .  S
S488        H489   1.407       .  S
C493        C494   1.402   1_545  A
C493        C498   1.411       .  A
C494        C495   1.397       .  A
C494        H503   1.084       .  S
C495        C496   1.409   1_565  A
C495        S499   1.800       .  S
C496        C497   1.402       .  A
C497        C498   1.399       .  A
C497        H504   1.082       .  S
C498        S500   1.805       .  S
S499        H502   1.405       .  S
S500        H501   1.404       .  S
C505        C506   1.397   1_455  A
C505        C510   1.417       .  A
C506        C507   1.394       .  A
C506        H515   1.084       .  S
C507        C508   1.409       .  A
C507        S511   1.795       .  S
C508        C509   1.401   1_655  A
C509        C510   1.403       .  A
C509        H516   1.083       .  S
C510        S512   1.804       .  S
S511        H514   1.406       .  S
S512        H513   1.405       .  S
C517        C518   1.410   1_565  A
C517        C522   1.406       .  A
C518        C519   1.405       .  A
C518        H527   1.084       .  S
C519        C520   1.409   1_545  A
C519        S523   1.802       .  S
C520        C521   1.405       .  A
C521        C522   1.387       .  A
C521        H528   1.080       .  S
C522        S524   1.805       .  S
S523        H526   1.405       .  S
S524        H525   1.407       .  S
C529        C530   1.402       .  A
C529        C534   1.410   1_565  A
C530        C531   1.402       .  A
C530        H539   1.084       .  S
C531        C532   1.416       .  A
C531        S535   1.807       .  S
C532        C533   1.402   1_565  A
C533        C534   1.400       .  A
C533        H540   1.084       .  S
C534        S536   1.804       .  S
S535        H538   1.403       .  S
S536        H537   1.405       .  S
C541        C542   1.389   1_455  A
C541        C546   1.421       .  A
C542        C543   1.381       .  A
C542        H551   1.083       .  S
C543        C544   1.428       .  A
C543        S547   1.808       .  S
C544        C545   1.405   1_655  A
C545        C546   1.410       .  A
C545        H552   1.084       .  S
C546        S548   1.803       .  S
S547        H550   1.407       .  S
S548        H549   1.407       .  S
C553        C554   1.403   1_565  A
C553        C558   1.411       .  A
C554        C555   1.403       .  A
C554        H563   1.084       .  S
C555        C556   1.413       .  A
C555        S559   1.804       .  S
C556        C557   1.400   1_545  A
C557        C558   1.395       .  A
C557        H564   1.084       .  S
C558        S560   1.800       .  S
S559        H562   1.406       .  S
S560        H561   1.406       .  S
C565        C566   1.408       .  A
C565        C570   1.409   1_655  A
C566        C567   1.391       .  A
C566        H575   1.085       .  S
C567        C568   1.408   1_655  A
C567        S571   1.802       .  S
C568        C569   1.410       .  A
C569        C570   1.402       .  A
C569        H576   1.084       .  S
C570        S572   1.802       .  S
S571        H574   1.407       .  S
S572        H573   1.404       .  S
C577        C578   1.404   1_565  A
C577        C582   1.409       .  A
C578        C579   1.404       .  A
C578        H587   1.084       .  S
C579        C580   1.414       .  A
C579        S583   1.804       .  S
C580        C581   1.403   1_545  A
C581        C582   1.401       .  A
C581        H588   1.083       .  S
C582        S584   1.802       .  S
S583        H586   1.404       .  S
S584        H585   1.406       .  S
C589        C590   1.405       .  A
C589        C594   1.409   1_455  A
C590        C591   1.389       .  A
C590        H599   1.081       .  S
C591        C592   1.405       .  A
C591        S595   1.804       .  S
C592        C593   1.409   1_455  A
C593        C594   1.402       .  A
C593        H600   1.084       .  S
C594        S596   1.803       .  S
S595        H598   1.407       .  S
S596        H597   1.404       .  S
C601        C602   1.403       .  A
C601        C606   1.409   1_545  A
C602        C603   1.396       .  A
C602        H611   1.085       .  S
C603        C604   1.409       .  A
C603        S607   1.805       .  S
C604        C605   1.403   1_545  A
C605        C606   1.397       .  A
C605        H612   1.084       .  S
C606        S608   1.803       .  S
S607        H610   1.406       .  S
S608        H609   1.404       .  S
C613        C614   1.404   1_455  A
C613        C618   1.420       .  A
C614        C615   1.409       .  A
C614        H623   1.084       .  S
C615        C616   1.420       .  A
C615        S619   1.800       .  S
C616        C617   1.391   1_655  A
C617        C618   1.378       .  A
C617        H624   1.085       .  S
C618        S620   1.790       .  S
S619        H622   1.406       .  S
S620        H621   1.397       .  S
C625        C626   1.392   1_655  A
C625        C630   1.423       .  A
C626        C627   1.385       .  A
C626        H635   1.082       .  S
C627        C628   1.428       .  A
C627        S631   1.809       .  S
C628        C629   1.403   1_455  A
C629        C630   1.414       .  A
C629        H636   1.082       .  S
C630        S632   1.805       .  S
S631        H634   1.407       .  S
S632        H633   1.407       .  S
