geometry optimzed in LAMMPS
_audit_creation_date              2020-11-30 
_audit_creation_method            'lammps2cif' 
_symmetry_space_group_name_H-M    'P1' 
_symmetry_Int_Tables_number       1 
_symmetry_cell_setting            triclinic 
loop_ 
_symmetry_equiv_pos_as_xyz 
  x,y,z 
_cell_length_a                    33.32356877674331 
_cell_length_b                    33.329795976965656 
_cell_length_c                    33.44907701257386 
_cell_angle_alpha                 90.19169767107103 
_cell_angle_beta                  90.04903543175482 
_cell_angle_gamma                 89.8315935935821 
loop_ 
_atom_site_label 
_atom_site_type_symbol 
_atom_site_fract_x 
_atom_site_fract_y 
_atom_site_fract_z 
_atom_site_charge 
O1          O  0.99628302  0.10091005  0.06309619    -0.86760
O2          O  0.98685185  0.87729826  0.05891655    -0.86930
O3          O  0.91997942  0.99630194  0.10036617    -0.88600
O4          O  0.05324538  0.98421238  0.11022766    -0.87350
O5          O  0.10412554  0.98510376  0.06396126    -0.86940
O6          O  0.87408288  0.98786726  0.05012184    -0.88310
O7          O  0.98411695  0.92576417  0.10813834    -0.86790
O8          O  0.98407997  0.05240111  0.10909760    -0.86380
Zr9        Zr  0.98881816  0.98833177  0.07616707     2.84310
O10         O  0.02985172  0.94677358  0.03789386    -1.08350
O11         O  0.95256171  0.02836099  0.03451057    -1.09080
C12         C  0.98799879  0.08918474  0.09858468     1.06350
C13         C  0.98541614  0.88961431  0.09534307     1.06290
C14         C  0.88376722  0.99454553  0.08637087     1.09270
C15         C  0.09059785  0.98361292  0.09976662     1.07050
H16         H  0.93115085  0.93157534  0.05027516     0.32610
O17         O  0.94938313  0.94788135  0.03491989    -1.29310
H18         H  0.05036595  0.04319176  0.05816424     0.32280
O19         O  0.03389738  0.02720851  0.04051289    -1.30980
O20         O  0.98800392  0.87948742  0.92924030    -0.86760
O21         O  0.98884432  0.10389522  0.93839727    -0.88250
O22         O  0.87769402  0.92674048  0.99186877    -0.86830
O23         O  0.09879886  0.91759814  0.00465419    -0.86880
O24         O  0.10893761  0.04745920  0.00084037    -0.86590
O25         O  0.88403070  0.05396022  0.00303514    -0.86400
O26         O  0.93694566  0.99047414  0.87854421    -0.86770
O27         O  0.06345709  0.99123147  0.88885505    -0.86230
O28         O  0.88784117  0.98480917  0.92559056    -0.87300
O29         O  0.10982227  0.98781344  0.93886746    -0.86460
O30         O  0.92598731  0.87883232  0.98738090    -0.86850
O31         O  0.93396969  0.09984415  0.01456566    -0.86580
O32         O  0.06201957  0.09811793  0.99873003    -0.86230
O33         O  0.05014403  0.86941852  0.99945933    -0.86630
O34         O  0.99361074  0.93027099  0.88313934    -0.86930
O35         O  0.99420530  0.05834077  0.88708375    -0.88270
Zr36       Zr  0.99071040  0.90907167  0.99463780     2.83100
Zr37       Zr  0.99630776  0.06818481  0.99938496     2.83500
Zr38       Zr  0.91397629  0.98932794  0.99224108     2.84090
Zr39       Zr  0.07276349  0.98549480  0.00000238     2.83360
Zr40       Zr  0.99740859  0.99265643  0.91735476     2.84220
O41         O  0.03810209  0.02999963  0.95912295    -1.08840
O42         O  0.95472860  0.95060870  0.95262719    -1.08340
C43         C  0.98859646  0.89370245  0.89359797     1.06320
C44         C  0.98942362  0.09395585  0.90135228     1.08940
C45         C  0.88918640  0.89025594  0.98714875     1.06490
C46         C  0.08640672  0.88087919  0.00449788     1.06850
C47         C  0.09813772  0.08441785  0.99954811     1.06440
C48         C  0.89734286  0.08850073  0.01376357     1.05990
C49         C  0.90038230  0.98546835  0.88927321     1.06410
C50         C  0.09970107  0.99024223  0.90198182     1.05930
H51         H  0.93753774  0.04923315  0.94001376     0.32600
O52         O  0.95468750  0.03218421  0.95591683    -1.29940
H53         H  0.05139037  0.93060674  0.93989616     0.32630
O54         O  0.03452186  0.94763105  0.95624218    -1.31320
C55         C  0.99191548  0.23482470  0.28430384     0.02860
C56         C  0.98389340  0.20712195  0.25422924    -0.13290
C57         C  0.99593320  0.21369203  0.21527588     0.00360
C58         C  0.01142818  0.25065182  0.20439664    -0.11820
C59         C  0.01034644  0.28283108  0.23101667     0.02850
C60         C  0.00298608  0.27470315  0.27253360    -0.11240
H61         H  0.97099284  0.17830469  0.26172473     0.08440
H62         H  0.02052904  0.25553957  0.17366009     0.05970
H63         H  0.00544389  0.29837900  0.29459426     0.05820
O64         O  0.00524272  0.12103619  0.44036663    -0.75560
O65         O  0.00500116  0.07478196  0.38945497    -0.54470
C66         C  0.00429762  0.11156798  0.40315696     0.78160
O67         O  0.12461593  0.00751185  0.56373729    -0.60170
O68         O  0.07859392  0.00281020  0.61443019    -0.53190
C69         C  0.11524659  0.00491840  0.60062099     0.70180
O70         O  0.12251945  0.00909499  0.43615588    -0.74720
O71         O  0.07558189  0.00813706  0.38618721    -0.55290
C72         C  0.11248941  0.00871520  0.39917935     0.76180
O73         O  0.00368261  0.11645693  0.57091198    -0.59870
O74         O  0.00679221  0.06831785  0.61941097    -0.52990
C75         C  0.00447388  0.10553065  0.60775284     0.72770
Zr76       Zr  0.00528816  0.08713295  0.50431039     2.54710
O77         O  0.05733421  0.13812045  0.50751899    -0.80430
O78         O  0.94771688  0.13232411  0.50426589    -0.93850
Zr79       Zr  0.09084784  0.00836063  0.50084283     2.64680
O80         O  0.13396029  0.06725111  0.50002329    -0.98810
O81         O  0.14460246  0.95884275  0.50010407    -0.80870
O82         O  0.04830691  0.04930124  0.46195974    -0.84220
O83         O  0.04877299  0.04683935  0.54331701    -2.18930
O84         O  0.89490563  0.00562374  0.56741450    -0.67610
O85         O  0.94187680  0.00460684  0.61731203    -0.52180
C86         C  0.90482790  0.00609752  0.60461605     0.71160
O87         O  0.01020964  0.89029209  0.43616242    -0.60520
O88         O  0.00659827  0.93770870  0.38682792    -0.52500
C89         C  0.00769945  0.90053202  0.39942837     0.72960
O90         O  0.01161275  0.88779987  0.56374446    -0.71920
O91         O  0.00807295  0.93323768  0.61513423    -0.50590
C92         C  0.00899392  0.89660618  0.60093424     0.74340
O93         O  0.89393914  0.00114895  0.43623154    -0.67250
O94         O  0.94168331  0.00694732  0.38841435    -0.54440
C95         C  0.90446574  0.00396157  0.39944159     0.72720
Zr96       Zr  0.92607897  0.00109459  0.50172411     2.77540
O97         O  0.88509596  0.94092003  0.49742831    -0.98000
O98         O  0.87216085  0.05051392  0.50140667    -0.78820
Zr99       Zr  0.01240038  0.92217807  0.50056341     2.70070
O100        O  0.96068910  0.87070606  0.50001367    -0.80060
O101        O  0.07047957  0.87769324  0.49877532    -0.99150
Zr102      Zr  0.00870232  0.00602605  0.42044190     2.21500
Zr103      Zr  0.00933857  0.00226946  0.58377154     2.11130
O104        O  0.96861796  0.96037739  0.54165611    -2.47830
O105        O  0.96916216  0.96214165  0.46086170    -0.79860
O106        O  0.96594483  0.04298734  0.54311841    -0.72050
O107        O  0.05209393  0.96495508  0.46038396    -2.33010
O108        O  0.96547974  0.04524931  0.46289543    -2.29220
O109        O  0.05287439  0.96381177  0.54121775    -0.73810
H110        H  0.06504869  0.06391943  0.56010810     0.78190
H111        H  0.06943474  0.94883383  0.44363625     0.79270
H112        H  0.95228050  0.94283924  0.55772043     0.81500
H113        H  0.94790265  0.06179981  0.44692605     0.79100
H114        H  0.13089368  0.93290751  0.49574845     0.42140
H115        H  0.08323938  0.88072542  0.52535732     0.41110
H116        H  0.94120439  0.87961048  0.47949299     0.40790
H117        H  0.89080462  0.92575106  0.52215913     0.38720
H118        H  0.88342732  0.07401741  0.51563729     0.41850
H119        H  0.93306986  0.12641343  0.47918035     0.36640
H120        H  0.07782742  0.12904264  0.48806430     0.42750
H121        H  0.12973924  0.08049351  0.52622335     0.39170
H122        H  0.85714997  0.95060554  0.50035710     0.44090
H123        H  0.95933866  0.15928362  0.50002551     0.42810
H124        H  0.16156696  0.05628166  0.50150565     0.42950
H125        H  0.05899025  0.85033166  0.49900484     0.43310
C126        C  0.78048600  0.02966216  0.27337815     0.02860
C127        C  0.74429709  0.00640023  0.26542994    -0.13290
C128        C  0.72212285  0.01290390  0.22880948     0.00360
C129        C  0.73754389  0.03998971  0.20150988    -0.11820
C130        C  0.77665655  0.05188248  0.20531092     0.02850
C131        C  0.79143939  0.05704129  0.24375149    -0.11240
H132        H  0.73523284  0.98266441  0.28540682     0.08440
H133        H  0.72337831  0.04255544  0.17243946     0.05970
H134        H  0.81583454  0.07769960  0.24824314     0.05820
C135        C  0.00314389  0.71206265  0.24021965     0.02860
C136        C  0.99982643  0.74055677  0.21046385    -0.13290
C137        C  0.99587472  0.78024916  0.21969239     0.00360
C138        C  0.99612174  0.79404748  0.25826259    -0.11820
C139        C  0.99897427  0.76764656  0.29008415     0.02850
C140        C  0.00275949  0.72522182  0.28146092    -0.11240
H141        H  0.99999629  0.73177683  0.17909074     0.08440
H142        H  0.99394434  0.82621377  0.26338566     0.05970
H143        H  0.00519198  0.70369196  0.30546903     0.05820
C144        C  0.27943437  0.00799106  0.22555199     0.02860
C145        C  0.24810405  0.99377293  0.20187555    -0.13290
C146        C  0.21182822  0.98246158  0.21857362     0.00360
C147        C  0.20688587  0.98260696  0.25948015    -0.11820
C148        C  0.23537306  0.00065346  0.28418662     0.02850
C149        C  0.27277543  0.01307692  0.26747314    -0.11240
H150        H  0.25152659  0.99275342  0.16961316     0.08440
H151        H  0.17809197  0.97352850  0.27161683     0.05970
H152        H  0.29550939  0.02667117  0.28619718     0.05820
C153        C  0.98303040  0.76605056  0.70632281     0.02860
C154        C  0.96046611  0.79263275  0.72965525    -0.13290
C155        C  0.95524037  0.78582626  0.76964878     0.00360
C156        C  0.96216327  0.74841960  0.78560319    -0.11820
C157        C  0.98749647  0.72151053  0.76608221     0.02850
C158        C  0.99839021  0.73015950  0.72521687    -0.11240
H159        H  0.95361359  0.82256708  0.71878688     0.08440
H160        H  0.95480704  0.74376521  0.81687215     0.05970
H161        H  0.01868392  0.71043900  0.70927104     0.05820
C162        C  0.23884167  0.99030330  0.71583285     0.02860
C163        C  0.27436407  0.00792898  0.73208282    -0.13290
C164        C  0.28230668  0.00430654  0.77381861     0.00360
C165        C  0.25356246  0.98607486  0.79773724    -0.11820
C166        C  0.21793181  0.97143780  0.78205740     0.02850
C167        C  0.21323512  0.96894106  0.74112630    -0.11240
H168        H  0.29457184  0.02460296  0.71309306     0.08440
H169        H  0.25761355  0.98644005  0.82987252     0.05970
H170        H  0.18554519  0.95634824  0.72955545     0.05820
C171        C  0.99287326  0.23152257  0.72555753     0.02860
C172        C  0.97697560  0.20633327  0.75452124    -0.13290
C173        C  0.96750540  0.22048794  0.79218925     0.00360
C174        C  0.96817226  0.26104196  0.80034254    -0.11820
C175        C  0.98558529  0.28781145  0.77347370     0.02850
C176        C  0.99841044  0.27309738  0.73515572    -0.11240
H177        H  0.97557862  0.17424237  0.74890180     0.08440
H178        H  0.96052172  0.27088958  0.83038473     0.05970
H179        H  0.01279373  0.29294982  0.71407059     0.05820
C180        C  0.77815192  0.99841507  0.72201324     0.02860
C181        C  0.79989969  0.97284300  0.74659573    -0.13290
C182        C  0.78193593  0.95256252  0.77825393     0.00360
C183        C  0.74062550  0.95366622  0.78162827    -0.11820
C184        C  0.71907050  0.98553840  0.76471933     0.02850
C185        C  0.73744790  0.00726400  0.73261639    -0.11240
H186        H  0.83207995  0.97109518  0.74230093     0.08440
H187        H  0.72688239  0.93495018  0.80411892     0.05970
H188        H  0.72097879  0.03042260  0.71697309     0.05820
O189        O  0.57372798  0.11717373  0.00211976    -0.75560
O190        O  0.62296713  0.06946286  0.00268758    -0.54470
C191        C  0.61076509  0.10666394  0.00286397     0.78160
O192        O  0.43726938  0.00728212  0.11297459    -0.60170
O193        O  0.38827948  0.00926920  0.06512059    -0.53190
C194        C  0.40024115  0.00879594  0.10212062     0.70180
O195        O  0.56921726  0.00267795  0.11554869    -0.74720
O196        O  0.61973821  0.00293371  0.06962140    -0.55290
C197        C  0.60665327  0.00232682  0.10645771     0.76180
O198        O  0.44446003  0.12188761  0.99822579    -0.59870
O199        O  0.39332566  0.07602683  0.99848945    -0.52990
C200        C  0.40725763  0.11252524  0.99812434     0.72770
Zr201      Zr  0.50777796  0.08742566  0.00052961     2.54710
O202        O  0.50481663  0.13422691  0.05635349    -0.80430
O203        O  0.50955693  0.13668360  0.94690693    -0.93850
Zr204      Zr  0.50403251  0.00601462  0.08332858     2.64680
O205        O  0.50202088  0.06200098  0.13027682    -0.98810
O206        O  0.50293192  0.95326248  0.13349607    -0.80870
O207        O  0.54671662  0.04601992  0.04290759    -0.84220
O208        O  0.46549092  0.04828534  0.04154654    -2.18930
O209        O  0.44010216  0.01166784  0.88721555    -0.67610
O210        O  0.39005664  0.00857380  0.93341540    -0.52180
C211        C  0.40276517  0.01114454  0.89677828     0.71160
O212        O  0.56782843  0.88916277  0.00229866    -0.60520
O213        O  0.61905764  0.93490402  0.00333991    -0.52500
C214        C  0.60519193  0.89833526  0.00313473     0.72960
O215        O  0.43719531  0.89313116  0.00284983    -0.71920
O216        O  0.38820645  0.94133784  0.00005588    -0.50590
C217        C  0.40025850  0.90416128  0.00179012     0.74340
O218        O  0.56967091  0.00546425  0.88580043    -0.67250
O219        O  0.61995520  0.00281793  0.93254792    -0.54440
C220        C  0.60680078  0.00389005  0.89558263     0.72720
Zr221      Zr  0.50548983  0.00394644  0.91862173     2.77540
O222        O  0.50688794  0.94211737  0.87971445    -0.98000
O223        O  0.50689219  0.05056705  0.86281861    -0.78820
Zr224      Zr  0.50344709  0.92272460  0.00151507     2.70070
O225        O  0.50190700  0.87183174  0.94911074    -0.80060
O226        O  0.50698334  0.87677492  0.05778060    -0.99150
Zr227      Zr  0.58748479  0.00328600  0.00136609     2.21500
Zr228      Zr  0.42379239  0.00733916  0.99980702     2.11130
O229        O  0.46379579  0.96367767  0.95897516    -2.47830
O230        O  0.54535279  0.96210475  0.95997779    -0.79860
O231        O  0.46649071  0.04755817  0.95874810    -0.72050
O232        O  0.54417443  0.96347628  0.04274297    -2.33010
O233        O  0.54698047  0.04523716  0.95914461    -2.29220
O234        O  0.46315575  0.96475400  0.04242486    -0.73810
H235        H  0.44906058  0.06583896  0.05775006     0.78190
H236        H  0.56007830  0.94629750  0.05976172     0.79270
H237        H  0.44672280  0.94722861  0.94236085     0.81500
H238        H  0.56379805  0.06163713  0.94234996     0.79100
H239        H  0.52512895  0.93488316  0.12611779     0.42140
H240        H  0.48823953  0.88814666  0.07777212     0.41110
H241        H  0.47655679  0.87661093  0.93441195     0.40790
H242        H  0.47937638  0.93117812  0.88105914     0.38720
H243        H  0.50412296  0.07735386  0.87541850     0.41850
H244        H  0.53390280  0.13008572  0.93123932     0.36640
H245        H  0.52138782  0.12152268  0.07738519     0.42750
H246        H  0.47913912  0.07888124  0.12165346     0.39170
H247        H  0.51016009  0.95101204  0.85171281     0.44090
H248        H  0.51599238  0.16235777  0.96041027     0.42810
H249        H  0.49284753  0.04993401  0.15567610     0.42950
H250        H  0.49394776  0.85189436  0.04817102     0.43310
O251        O  0.11981547  0.43858278  0.99699510    -0.75560
O252        O  0.07210205  0.38942921  0.99905614    -0.54470
C253        C  0.10905100  0.40152159  0.99789600     0.78160
O254        O  0.00734493  0.56723584  0.11826888    -0.60170
O255        O  0.00533730  0.61827915  0.07253366    -0.53190
C256        C  0.00596236  0.60440811  0.10917002     0.70180
O257        O  0.01346310  0.43915901  0.11701475    -0.74720
O258        O  0.00895261  0.38973930  0.06953262    -0.55290
C259        C  0.01185538  0.40218972  0.10652032     0.76180
O260        O  0.11932996  0.57045084  0.99583507    -0.59870
O261        O  0.07204846  0.62042390  0.99881362    -0.52990
C262        C  0.10903034  0.60761484  0.99663134     0.72770
Zr263      Zr  0.08842424  0.50482052  0.99820447     2.54710
O264        O  0.13943439  0.50317924  0.05025112    -0.80430
O265        O  0.13355032  0.50796359  0.94113556    -0.93850
Zr266      Zr  0.01021148  0.50377753  0.08468563     2.64680
O267        O  0.06901841  0.50462197  0.12802242    -0.98810
O268        O  0.95956245  0.50243570  0.13715164    -0.80870
O269        O  0.05016414  0.46403337  0.04163033    -0.84220
O270        O  0.04929759  0.54514375  0.04217016    -2.18930
O271        O  0.00206047  0.57000095  0.88878456    -0.67610
O272        O  0.00110230  0.61979249  0.93526480    -0.52180
C273        C  0.00066913  0.60724977  0.89815067     0.71160
O274        O  0.89309990  0.43902442  0.99615086    -0.60520
O275        O  0.94015453  0.38992641  0.00216436    -0.52500
C276        C  0.90338039  0.40195156  0.99742588     0.72960
O277        O  0.89168202  0.56995836  0.00525416    -0.71920
O278        O  0.93783366  0.62060249  0.00317849    -0.50590
C279        C  0.90111709  0.60725860  0.00333332     0.74340
O280        O  0.00176252  0.44039047  0.88815977    -0.67250
O281        O  0.00395597  0.39024259  0.93479783    -0.54440
C282        C  0.00226631  0.40329107  0.89812243     0.72720
Zr283      Zr  0.00101234  0.50509583  0.92066832     2.77540
O284        O  0.93796020  0.50136664  0.88395724    -0.98000
O285        O  0.04710497  0.50551954  0.86426402    -0.78820
Zr286      Zr  0.92317702  0.50433653  0.00734946     2.70070
O287        O  0.86379179  0.50259405  0.96510918    -0.80060
O288        O  0.88413786  0.50179370  0.06876506    -0.99150
Zr289      Zr  0.00627275  0.42345023  0.00216614     2.21500
Zr290      Zr  0.00498177  0.58681896  0.00323367     2.11130
O291        O  0.96131454  0.54525657  0.96366151    -2.47830
O292        O  0.96225561  0.46456859  0.96337223    -0.79860
O293        O  0.04460402  0.54531738  0.95962922    -0.72050
O294        O  0.96599172  0.46340857  0.04643608    -2.33010
O295        O  0.04554308  0.46472937  0.95850722    -2.29220
O296        O  0.96616575  0.54484431  0.04668594    -0.73810
H297        H  0.06681822  0.56171069  0.05821145     0.78190
H298        H  0.95005195  0.44654955  0.06362757     0.79270
H299        H  0.94360642  0.56154867  0.94757367     0.81500
H300        H  0.06155721  0.44835471  0.94073002     0.79100
H301        H  0.94209011  0.47939386  0.13048420     0.42140
H302        H  0.89343553  0.52517125  0.08454738     0.41110
H303        H  0.87397448  0.49514003  0.93828502     0.40790
H304        H  0.92768320  0.52922405  0.88284335     0.38720
H305        H  0.07135943  0.51920253  0.87455127     0.41850
H306        H  0.12485942  0.48594555  0.92323000     0.36640
H307        H  0.12957311  0.48322178  0.06974704     0.42750
H308        H  0.08196016  0.53086596  0.12325745     0.39170
H309        H  0.94571858  0.49474620  0.85614729     0.44090
H310        H  0.15989395  0.49919734  0.95172043     0.42810
H311        H  0.05796983  0.50677483  0.15541962     0.42950
H312        H  0.85658235  0.50915374  0.06041158     0.43310
C313        C  0.28420324  0.22842224  0.99992842     0.02860
C314        C  0.25639853  0.19735582  0.99915860    -0.13290
C315        C  0.21590129  0.20545658  0.99859148     0.00360
C316        C  0.20184326  0.24447304  0.99911529    -0.11820
C317        C  0.22824619  0.27679627  0.00294043     0.02850
C318        C  0.27042573  0.26894832  0.00271972    -0.11240
H319        H  0.26640013  0.16630515  0.99846196     0.08440
H320        H  0.16965874  0.24955329  0.99819740     0.05970
H321        H  0.29168745  0.29334410  0.00479621     0.05820
C322        C  0.28369674  0.77856455  0.01561425     0.02860
C323        C  0.25895267  0.79986327  0.04212021    -0.13290
C324        C  0.21869080  0.79010410  0.04564633     0.00360
C325        C  0.20575955  0.75280657  0.03205606    -0.11820
C326        C  0.23020954  0.72833790  0.00871619     0.02850
C327        C  0.26946244  0.74186389  0.99871623    -0.11240
H328        H  0.26922159  0.82806010  0.05467034     0.08440
H329        H  0.17449812  0.74447254  0.03548493     0.05970
H330        H  0.28802152  0.72478270  0.97826009     0.05820
C331        C  0.78376576  0.27545781  0.00468643     0.02860
C332        C  0.80163486  0.24944788  0.03211480    -0.13290
C333        C  0.78481569  0.21229662  0.03953794     0.00360
C334        C  0.74499497  0.20527513  0.03042325    -0.11820
C335        C  0.72467526  0.23025876  0.00366524     0.02850
C336        C  0.74444390  0.26576570  0.98981914    -0.11240
H337        H  0.83227812  0.25471677  0.04177601     0.08440
H338        H  0.73252629  0.17611879  0.03769107     0.05970
H339        H  0.73027889  0.28450823  0.96751220     0.05820
C340        C  0.76805216  0.71551820  0.98044038     0.02860
C341        C  0.78475768  0.73473292  0.94739393    -0.13290
C342        C  0.78042226  0.77591804  0.94334063     0.00360
C343        C  0.74737607  0.79407664  0.96205100    -0.11820
C344        C  0.72232519  0.77275863  0.98760023     0.02850
C345        C  0.73466921  0.73382787  0.00002434    -0.11240
H346        H  0.80685780  0.71913058  0.92971770     0.08440
H347        H  0.74145910  0.82581522  0.95859499     0.05970
H348        H  0.71924656  0.71857939  0.02400361     0.05820
C349        C  0.85964772  0.66776620  0.02626177    -0.02120
C350        C  0.86572158  0.63520922  0.99976193     0.07560
C351        C  0.83491981  0.62607891  0.97185067    -0.02230
C352        C  0.79860641  0.64801790  0.97133329    -0.02240
C353        C  0.79339626  0.68189668  0.99609247     0.07690
C354        C  0.82393338  0.69106162  0.02421963    -0.02430
Br355      Br  0.81843366  0.73812715  0.05750609    -0.00980
Br356      Br  0.90086864  0.68183389  0.06413923    -0.01050
Br357      Br  0.75696184  0.63461625  0.93341331    -0.01010
Br358      Br  0.84440496  0.58736059  0.92985705    -0.01000
C359        C  0.87837007  0.33340032  0.97606303    -0.02120
C360        C  0.87018428  0.37139282  0.99305953     0.07560
C361        C  0.82987681  0.37960403  0.00549045    -0.02230
C362        C  0.80002533  0.34931408  0.00408726    -0.02240
C363        C  0.80975135  0.31007508  0.99177405     0.07690
C364        C  0.84919802  0.30283689  0.97682844    -0.02430
Br365      Br  0.86616700  0.25022690  0.95985190    -0.00980
Br366      Br  0.92928043  0.32252083  0.94996224    -0.01050
Br367      Br  0.74625702  0.36053328  0.02269559    -0.01010
Br368      Br  0.81428972  0.43113645  0.02728958    -0.01000
C369        C  0.14753907  0.66541319  0.96515816    -0.02120
C370        C  0.14356778  0.63662614  0.99577793     0.07560
C371        C  0.17561529  0.63249273  0.02346986    -0.02230
C372        C  0.20901583  0.65855546  0.02225430    -0.02240
C373        C  0.21016811  0.69067227  0.99506298     0.07690
C374        C  0.17962985  0.69323740  0.96573426    -0.02430
Br375      Br  0.17977925  0.73761667  0.92887281    -0.00980
Br376      Br  0.11087149  0.66501852  0.92090243    -0.01050
Br377      Br  0.25185508  0.65327235  0.06073008    -0.01010
Br378      Br  0.17307991  0.59295194  0.06533955    -0.01000
C379        C  0.14360129  0.34331639  0.03120757    -0.02120
C380        C  0.14233736  0.37123448  0.99967901     0.07560
C381        C  0.17533833  0.37258605  0.97282044    -0.02230
C382        C  0.20710672  0.34428143  0.97585605    -0.02240
C383        C  0.20810725  0.31677113  0.00775417     0.07690
C384        C  0.17811618  0.31979517  0.03749945    -0.02430
Br385      Br  0.18329362  0.28923986  0.08606947    -0.00980
Br386      Br  0.09690796  0.33333374  0.06353005    -0.01050
Br387      Br  0.24794986  0.34152255  0.93518890    -0.01010
Br388      Br  0.17523128  0.40995434  0.92902712    -0.01000
C389        C  0.65428157  0.21279335  0.01658547    -0.02120
C390        C  0.68591460  0.21288679  0.98878398     0.07560
C391        C  0.68909691  0.17900639  0.96353093    -0.02230
C392        C  0.67150927  0.14216871  0.97425331    -0.02240
C393        C  0.63974090  0.14141891  0.00198896     0.07690
C394        C  0.63061435  0.17798632  0.02246791    -0.02430
Br395      Br  0.58940696  0.17996840  0.06277573    -0.00980
Br396      Br  0.64573924  0.26054311  0.04809931    -0.01050
Br397      Br  0.69576865  0.09346363  0.95492734    -0.01010
Br398      Br  0.70457679  0.18642741  0.90883179    -0.01000
C399        C  0.37356787  0.84187804  0.03469292    -0.02120
C400        C  0.37085761  0.87014346  0.00323120     0.07560
C401        C  0.34492114  0.86162987  0.97082189    -0.02230
C402        C  0.32052095  0.82671035  0.97119833    -0.02240
C403        C  0.32124459  0.80024399  0.00422983     0.07690
C404        C  0.34974631  0.80693363  0.03458993    -0.02430
Br405      Br  0.35366965  0.76881758  0.07774131    -0.00980
Br406      Br  0.40720959  0.85253830  0.08038556    -0.01050
Br407      Br  0.28443884  0.81589304  0.92735477    -0.01010
Br408      Br  0.34243405  0.89800537  0.92617367    -0.01000
C409        C  0.65488967  0.85053638  0.03621996    -0.02120
C410        C  0.63309376  0.86295793  0.00211258     0.07560
C411        C  0.63281715  0.83722461  0.96844103    -0.02230
C412        C  0.65753823  0.80282710  0.96717208    -0.02240
C413        C  0.68456458  0.79442901  0.99862552     0.07690
C414        C  0.68222693  0.81786423  0.03377852    -0.02430
Br415      Br  0.71787832  0.80646383  0.07758753    -0.00980
Br416      Br  0.64338057  0.87457183  0.08721806    -0.01050
Br417      Br  0.65726744  0.76856135  0.92044393    -0.01010
Br418      Br  0.59856136  0.84885929  0.92352264    -0.01000
C419        C  0.36526582  0.16309893  0.96131248    -0.02120
C420        C  0.37949861  0.14754410  0.99781903     0.07560
C421        C  0.37298891  0.17011981  0.03311564    -0.02230
C422        C  0.34581202  0.20276027  0.03307439    -0.02240
C423        C  0.32642213  0.21426301  0.99743703     0.07690
C424        C  0.33858549  0.19606851  0.96115484    -0.02430
Br425      Br  0.31454885  0.21354224  0.91171079    -0.00980
Br426      Br  0.38415805  0.14079107  0.91150442    -0.01050
Br427      Br  0.33194895  0.22948106  0.08232610    -0.01010
Br428      Br  0.40241756  0.15740807  0.08112823    -0.01000
C429        C  0.65563122  0.03550010  0.84580734    -0.02120
C430        C  0.63462911  0.00157537  0.85997576     0.07560
C431        C  0.63246609  0.96794201  0.83404801    -0.02230
C432        C  0.65420355  0.96678009  0.79770175    -0.02240
C433        C  0.68197812  0.99727340  0.78809059     0.07690
C434        C  0.68138494  0.03253887  0.81196850    -0.02430
Br435      Br  0.71797992  0.07570377  0.80089256    -0.00980
Br436      Br  0.64455815  0.08719393  0.86878083    -0.01050
Br437      Br  0.64818937  0.92183299  0.76160603    -0.01010
Br438      Br  0.59923689  0.92298798  0.84780787    -0.01000
C439        C  0.03116976  0.33494807  0.81018808    -0.02120
C440        C  0.99355279  0.32815372  0.79179481     0.07560
C441        C  0.95995633  0.34952878  0.80664340    -0.02230
C442        C  0.96262717  0.37226481  0.84230082    -0.02240
C443        C  0.99926970  0.37498434  0.86342321     0.07690
C444        C  0.03394359  0.35778050  0.84602954    -0.02430
Br445      Br  0.08517672  0.36541231  0.87156002    -0.00980
Br446      Br  0.07866175  0.31175266  0.78667573    -0.01050
Br447      Br  0.91532515  0.39843400  0.86327101    -0.01010
Br448      Br  0.90901637  0.34369670  0.77984093    -0.01000
C449        C  0.31229101  0.04160357  0.83154459    -0.02120
C450        C  0.31857556  0.01883963  0.79618533     0.07560
C451        C  0.35473485  0.99747102  0.79230566    -0.02230
C452        C  0.38221688  0.99544958  0.82458486    -0.02240
C453        C  0.37337906  0.01389308  0.86226578     0.07690
C454        C  0.33753954  0.03673606  0.86523562    -0.02430
Br455      Br  0.31993879  0.05875431  0.91575874    -0.00980
Br456      Br  0.26570706  0.07623804  0.83488365    -0.01050
Br457      Br  0.42936116  0.96262462  0.81700120    -0.01010
Br458      Br  0.36484444  0.96790186  0.74352898    -0.01000
C459        C  0.98807295  0.64945482  0.78965163    -0.02120
C460        C  0.00301398  0.68860869  0.79335440     0.07560
C461        C  0.01879799  0.70004282  0.83123742    -0.02230
C462        C  0.01256693  0.67642493  0.86583428    -0.02240
C463        C  0.99949288  0.63616176  0.86244283     0.07690
C464        C  0.98755479  0.62297362  0.82304643    -0.02430
Br465      Br  0.96512798  0.57045448  0.81325745    -0.00980
Br466      Br  0.96593772  0.63326368  0.73869994    -0.01050
Br467      Br  0.01528851  0.70308214  0.91716250    -0.01010
Br468      Br  0.04667037  0.75037229  0.83646966    -0.01000
C469        C  0.37320346  0.98321776  0.16813151    -0.02120
C470        C  0.37025558  0.01051551  0.13573676     0.07560
C471        C  0.34124705  0.04147880  0.13804096    -0.02230
C472        C  0.31594385  0.04502379  0.17188166    -0.02240
C473        C  0.31727608  0.01629918  0.20297028     0.07690
C474        C  0.34690516  0.98609462  0.20127729    -0.02430
Br475      Br  0.34874617  0.94621047  0.24293491    -0.00980
Br476      Br  0.41014337  0.93859560  0.16535419    -0.01050
Br477      Br  0.27664626  0.08766217  0.17460985    -0.01010
Br478      Br  0.33434547  0.07811353  0.09416562    -0.01000
C479        C  0.96994597  0.65516015  0.20583969    -0.02120
C480        C  0.00586443  0.67084473  0.22219429     0.07560
C481        C  0.04211530  0.66141286  0.20207507    -0.02230
C482        C  0.04185725  0.64247877  0.16392942    -0.02240
C483        C  0.00538673  0.63118815  0.14547190     0.07690
C484        C  0.96973690  0.63529428  0.16817921    -0.02430
Br485      Br  0.92030014  0.61346559  0.14766130    -0.00980
Br486      Br  0.92011854  0.66623999  0.23296223    -0.01040
Br487      Br  0.09171846  0.63192221  0.13669864    -0.01010
Br488      Br  0.09187529  0.67976227  0.22493894    -0.01000
C489        C  0.62435346  0.01636560  0.18031285    -0.02120
C490        C  0.63517796  0.99975987  0.14218600     0.07560
C491        C  0.67116725  0.97715677  0.14059279    -0.02230
C492        C  0.69317509  0.96899884  0.17601011    -0.02240
C493        C  0.68630496  0.99106918  0.21178815     0.07690
C494        C  0.64966270  0.01189066  0.21431349    -0.02430
Br495      Br  0.63732814  0.03843383  0.26416474    -0.00980
Br496      Br  0.57852180  0.05133237  0.18615366    -0.01050
Br497      Br  0.73596984  0.93053535  0.17424713    -0.01010
Br498      Br  0.69485686  0.96231981  0.09000085    -0.01000
C499        C  0.80065609  0.98844868  0.65201653    -0.02120
C500        C  0.80147707  0.01284669  0.68640241     0.07560
C501        C  0.83563857  0.03741508  0.69257272    -0.02230
C502        C  0.86922715  0.03564654  0.66631862    -0.02240
C503        C  0.86983981  0.00836587  0.63370043     0.07690
C504        C  0.83459581  0.98523868  0.62669833    -0.02430
Br505      Br  0.83339570  0.94488998  0.58534451    -0.00980
Br506      Br  0.75392074  0.95557099  0.64247306    -0.01050
Br507      Br  0.91417468  0.07081326  0.67548794    -0.01010
Br508      Br  0.83736886  0.07102341  0.73955928    -0.01000
C509        C  0.03395218  0.17882827  0.69180405    -0.02120
C510        C  0.00474048  0.20962044  0.68810280     0.07560
C511        C  0.97604314  0.20608309  0.65735347    -0.02230
C512        C  0.97522260  0.17173556  0.63221308    -0.02240
C513        C  0.00295025  0.13966013  0.63759168     0.07690
C514        C  0.03160702  0.14327166  0.66854653    -0.02430
Br515      Br  0.06485539  0.09819890  0.68257818    -0.00980
Br516      Br  0.07466738  0.18388690  0.73261747    -0.01050
Br517      Br  0.93196328  0.16647333  0.59418591    -0.01010
Br518      Br  0.93521907  0.24694759  0.65255679    -0.01000
C519        C  0.17413073  0.96734476  0.62858497    -0.02120
C520        C  0.15096442  0.00291900  0.62747406     0.07560
C521        C  0.16853463  0.03821246  0.64303850    -0.02230
C522        C  0.20263252  0.03586399  0.66824795    -0.02240
C523        C  0.22121435  0.99842365  0.67559545     0.07690
C524        C  0.20894599  0.96511061  0.65250552    -0.02430
Br525      Br  0.23828340  0.91534541  0.65689220    -0.00980
Br526      Br  0.16027630  0.92263349  0.59473257    -0.01050
Br527      Br  0.22189089  0.08345558  0.69481052    -0.01010
Br528      Br  0.14934415  0.08979114  0.62563611    -0.01000
C529        C  0.03726091  0.83954511  0.64328435    -0.02120
C530        C  0.00385882  0.86026090  0.62708605     0.07560
C531        C  0.96674770  0.83981789  0.62608867    -0.02230
C532        C  0.96243992  0.80173860  0.64425612    -0.02240
C533        C  0.99426382  0.78436877  0.66659059     0.07690
C534        C  0.03265129  0.80156726  0.66207811    -0.02430
Br535      Br  0.07890687  0.77236472  0.68084055    -0.00980
Br536      Br  0.08938778  0.86328007  0.64023146    -0.01050
Br537      Br  0.91092173  0.77545029  0.64404873    -0.01010
Br538      Br  0.92094860  0.86487986  0.60101578    -0.01000
C539        C  0.15806528  0.04273868  0.34917315    -0.02120
C540        C  0.14757087  0.00827490  0.37116261     0.07560
C541        C  0.17567433  0.97630957  0.37299846    -0.02230
C542        C  0.21102909  0.97702203  0.34967497    -0.02240
C543        C  0.21952884  0.00996736  0.32483148     0.07690
C544        C  0.19494663  0.04435977  0.32819009    -0.02430
Br545      Br  0.21137423  0.09282771  0.30162644    -0.00980
Br546      Br  0.12132016  0.08704205  0.34631040    -0.01050
Br547      Br  0.24630985  0.93112250  0.34786401    -0.01010
Br548      Br  0.16480971  0.93005992  0.40554462    -0.01000
C549        C  0.03537768  0.80190900  0.34609270    -0.02120
C550        C  0.99842207  0.78969134  0.32947393     0.07560
C551        C  0.96414554  0.81384176  0.33780837    -0.02230
C552        C  0.96768319  0.85134582  0.35779690    -0.02240
C553        C  0.00532584  0.86504809  0.37149546     0.07690
C554        C  0.03863023  0.83870436  0.36746079    -0.02430
Br555      Br  0.08925595  0.85323514  0.39102441    -0.00980
Br556      Br  0.08229926  0.76934127  0.33663359    -0.01050
Br557      Br  0.92067253  0.88402276  0.36677850    -0.01010
Br558      Br  0.91274981  0.79736441  0.31692408    -0.01000
C559        C  0.82956498  0.00960039  0.37714934    -0.02120
C560        C  0.87140529  0.00547832  0.36779181     0.07560
C561        C  0.88186982  0.00546228  0.32695371    -0.02230
C562        C  0.85433450  0.01839280  0.29767783    -0.02240
C563        C  0.81185607  0.02113032  0.30614623     0.07690
C564        C  0.80035823  0.01615880  0.34654661    -0.02430
Br565      Br  0.74470176  0.02364681  0.36119668    -0.00980
Br566      Br  0.80988045  0.00502973  0.43135494    -0.01050
Br567      Br  0.88062530  0.03570364  0.24874592    -0.01010
Br568      Br  0.93300870  0.98356409  0.30880991    -0.01000
C569        C  0.97497441  0.33677357  0.19306756    -0.02120
C570        C  0.01113179  0.32291149  0.21054422     0.07560
C571        C  0.04763616  0.33769494  0.19502766    -0.02230
C572        C  0.04787492  0.36456620  0.16215714    -0.02240
C573        C  0.01204612  0.37317961  0.14092684     0.07690
C574        C  0.97540181  0.36066222  0.15801149    -0.02430
Br575      Br  0.92550776  0.37740849  0.13393040    -0.00980
Br576      Br  0.92457270  0.32059490  0.21615065    -0.01050
Br577      Br  0.09701065  0.39138191  0.14802649    -0.01010
Br578      Br  0.09748753  0.31881674  0.21738319    -0.01000
C579        C  0.03280584  0.17408439  0.37025932    -0.02120
C580        C  0.00063837  0.14681469  0.37531703     0.07560
C581        C  0.96273293  0.15800655  0.36006083    -0.02230
C582        C  0.95819408  0.19350472  0.33717493    -0.02240
C583        C  0.99207338  0.21642630  0.32551320     0.07690
C584        C  0.02920536  0.20725809  0.34389410    -0.02430
Br585      Br  0.07613378  0.23798872  0.33036914    -0.00980
Br586      Br  0.08157900  0.16691013  0.40033752    -0.01050
Br587      Br  0.90583006  0.20910456  0.31801639    -0.01010
Br588      Br  0.91671763  0.12484773  0.37107215    -0.01000
C589        C  0.87134015  0.81864112  0.97646381    -0.02120
C590        C  0.85939204  0.85951489  0.97545373     0.07560
C591        C  0.82617788  0.87065170  0.95106817    -0.02230
C592        C  0.80796053  0.84178196  0.92649469    -0.02240
C593        C  0.81580283  0.80099824  0.93295330     0.07690
C594        C  0.85229010  0.79072622  0.95183429    -0.02430
Br595      Br  0.88060346  0.74151435  0.93934640    -0.00980
Br596      Br  0.91292542  0.79896091  0.01202693    -0.01050
Br597      Br  0.76927062  0.85649063  0.88608919    -0.01010
Br598      Br  0.80440774  0.92431929  0.94999039    -0.01000
C599        C  0.81977081  0.16421584  0.99580768    -0.02120
C600        C  0.81180167  0.17829622  0.03503925     0.07560
C601        C  0.83247128  0.16252205  0.06795598    -0.02230
C602        C  0.85982113  0.13121013  0.06166505    -0.02240
C603        C  0.86809759  0.11865602  0.02225515     0.07690
C604        C  0.84920443  0.13574836  0.98948311    -0.02430
Br605      Br  0.86617848  0.12212194  0.93563804    -0.00980
Br606      Br  0.79323020  0.18447674  0.94918195    -0.01050
Br607      Br  0.88530094  0.10565830  0.10651858    -0.01010
Br608      Br  0.82440440  0.18480832  0.12062211    -0.01000
C609        C  0.15083568  0.81323456  0.06441766    -0.02120
C610        C  0.18809069  0.82200398  0.04633310     0.07560
C611        C  0.18897698  0.84844080  0.01338930    -0.02230
C612        C  0.15366838  0.85721552  0.99343212    -0.02240
C613        C  0.11709202  0.85080451  0.01219713     0.07690
C614        C  0.11512587  0.82700581  0.04678867    -0.02430
Br615      Br  0.06414950  0.80849586  0.06617163    -0.00980
Br616      Br  0.14937250  0.78089199  0.11210456    -0.01050
Br617      Br  0.15424884  0.87518704  0.93892609    -0.01010
Br618      Br  0.23583676  0.87848490  0.99832475    -0.01000
C619        C  0.17751214  0.15352499  0.96293642    -0.02120
C620        C  0.18772281  0.17263266  0.99897621     0.07560
C621        C  0.17071514  0.16090449  0.03550010    -0.02230
C622        C  0.14041459  0.13227086  0.03548118    -0.02240
C623        C  0.12979029  0.11355537  0.99943718     0.07690
C624        C  0.14925937  0.12275527  0.96342027    -0.02430
Br625      Br  0.13733921  0.09330347  0.91515517    -0.00980
Br626      Br  0.20167867  0.17000350  0.91323593    -0.01050
Br627      Br  0.11342260  0.11874802  0.08451862    -0.01010
Br628      Br  0.18993274  0.18272801  0.08542081    -0.01000
C629        C  0.82996287  0.98709211  0.86802875    -0.02120
C630        C  0.86994227  0.97696863  0.85888762     0.07560
C631        C  0.87834043  0.95047837  0.82681208    -0.02230
C632        C  0.84658547  0.93193777  0.80656621    -0.02240
C633        C  0.80693733  0.94459347  0.81381061     0.07690
C634        C  0.79865536  0.96805983  0.84823406    -0.02430
Br635      Br  0.74548911  0.97443120  0.87076490    -0.00980
Br636      Br  0.81739816  0.03008671  0.90529601    -0.01050
Br637      Br  0.85680076  0.89300066  0.76479998    -0.01010
Br638      Br  0.93209212  0.94238598  0.80676046    -0.01000
C639        C  0.94166816  0.15950956  0.82435745    -0.02120
C640        C  0.96857257  0.19184668  0.82477630     0.07560
C641        C  0.00194720  0.19217372  0.85091807    -0.02230
C642        C  0.00833095  0.15993795  0.87634156    -0.02240
C643        C  0.98307949  0.12643368  0.87377991     0.07690
C644        C  0.94958266  0.12607758  0.84809024    -0.02430
Br645      Br  0.91419768  0.08048902  0.84538182    -0.00980
Br646      Br  0.89476186  0.16089686  0.79037329    -0.01050
Br647      Br  0.05296786  0.16118606  0.91347238    -0.01010
Br648      Br  0.04195974  0.23404482  0.84997926    -0.01000
C649        C  0.15073552  0.99737980  0.80248033    -0.02120
C650        C  0.18310726  0.97023036  0.80885287     0.07560
C651        C  0.18866647  0.95291845  0.84675887    -0.02230
C652        C  0.16692360  0.96769809  0.87905618    -0.02240
C653        C  0.13148385  0.98958070  0.87188696     0.07690
C654        C  0.12417601  0.00584584  0.83370302    -0.02430
Br655      Br  0.08173756  0.04514007  0.82543607    -0.00980
Br656      Br  0.14310125  0.02651690  0.75304370    -0.01050
Br657      Br  0.19285778  0.96800622  0.93078968    -0.01010
Br658      Br  0.22841239  0.91139934  0.85534160    -0.01000
C659        C  0.94085949  0.85282267  0.85658585    -0.02120
C660        C  0.98025303  0.86658764  0.86164449     0.07560
C661        C  0.00973009  0.85946117  0.83306219    -0.02230
C662        C  0.99993314  0.83669879  0.79964441    -0.02240
C663        C  0.96117493  0.81912386  0.79674190     0.07690
C664        C  0.93161627  0.82731392  0.82515073    -0.02430
Br665      Br  0.87935178  0.80251751  0.82178436    -0.00980
Br666      Br  0.89866141  0.87341779  0.88890637    -0.01050
Br667      Br  0.04146468  0.82840244  0.76053611    -0.01010
Br668      Br  0.06342400  0.88059058  0.84044048    -0.01000
C669        C  0.11825585  0.00891317  0.16310289    -0.02120
C670        C  0.12044808  0.98145651  0.13138852     0.07560
C671        C  0.15159796  0.95270638  0.12971557    -0.02230
C672        C  0.17889858  0.94985935  0.16119313    -0.02240
C673        C  0.17718225  0.97798784  0.19243366     0.07690
C674        C  0.14640965  0.00720723  0.19378026    -0.02430
Br675      Br  0.14377788  0.04766010  0.23512189    -0.00980
Br676      Br  0.08094074  0.05308946  0.16132746    -0.01050
Br677      Br  0.21920897  0.90793407  0.16135417    -0.01010
Br678      Br  0.15917212  0.91870369  0.08377638    -0.01000
C679        C  0.02686631  0.83009402  0.17784641    -0.02120
C680        C  0.99279369  0.80802159  0.18789758     0.07560
C681        C  0.95627844  0.81151411  0.16726092    -0.02230
C682        C  0.95380777  0.83806327  0.13555310    -0.02240
C683        C  0.98786239  0.86028992  0.12561962     0.07690
C684        C  0.02402287  0.85719588  0.14693626    -0.02430
Br685      Br  0.06954139  0.88999442  0.13425181    -0.00980
Br686      Br  0.07729456  0.82250103  0.20575559    -0.01050
Br687      Br  0.90370791  0.84603011  0.10775090    -0.01010
Br688      Br  0.91000070  0.78063167  0.18301124    -0.01000
C689        C  0.79926782  0.04904299  0.13482982    -0.02120
C690        C  0.80286541  0.03449299  0.17414409     0.07560
C691        C  0.82511164  0.99821077  0.18060118    -0.02230
C692        C  0.85236918  0.98530953  0.15181616    -0.02240
C693        C  0.85102862  0.00241832  0.11388134     0.07690
C694        C  0.82033251  0.03003334  0.10402392    -0.02430
Br695      Br  0.80493982  0.04107221  0.04948768    -0.00980
Br696      Br  0.76483787  0.09422665  0.12255793    -0.01050
Br697      Br  0.88957832  0.94189568  0.16334563    -0.01010
Br698      Br  0.81727620  0.96116551  0.22430299    -0.01000
C699        C  0.97313789  0.16032285  0.11906577    -0.02120
C700        C  0.98365245  0.12030557  0.12944066     0.07560
C701        C  0.99198752  0.11109780  0.16980259    -0.02230
C702        C  0.00233845  0.14207138  0.19556985    -0.02240
C703        C  0.99109816  0.18166211  0.18580148     0.07690
C704        C  0.97266938  0.18977654  0.14878128    -0.02430
Br705      Br  0.94415798  0.23961389  0.13918208    -0.00980
Br706      Br  0.95695621  0.17636048  0.06575419    -0.01050
Br707      Br  0.03486097  0.12923682  0.24191575    -0.01010
Br708      Br  0.98395975  0.05853715  0.19307481    -0.01000
loop_ 
_geom_bond_atom_site_label_1 
_geom_bond_atom_site_label_2 
_geom_bond_distance 
_geom_bond_site_symmetry_2 
_ccdc_geom_bond_type 
O1          Zr37   2.391   1_554  S
O1           C12   1.282       .  A
O2          Zr36   2.404   1_554  S
O2           C13   1.285       .  A
O3           Zr9   2.447       .  S
O3           C14   1.295       .  A
O4           Zr9   2.433   1_455  S
O4           C15   1.293       .  A
O5          Zr39   2.380       .  S
O5           C15   1.281       .  A
O6          Zr38   2.350   1_554  S
O6           C14   1.273       .  A
O7           Zr9   2.352       .  S
O7           C13   1.278       .  A
O8           Zr9   2.404   1_545  S
O8           C12   1.284       .  A
Zr9          O10   2.325   1_655  S
Zr9          O11   2.276   1_565  S
Zr9          O19   2.320   1_665  S
Zr9          O17   2.333       .  S
O10         Zr36   2.317   1_454  S
O10         Zr39   2.311       .  S
O11         Zr37   2.300   1_554  S
O11         Zr38   2.311   1_544  S
C12         C700   1.468       .  S
C13         C683   1.412       .  S
C14         C693   1.451   1_565  S
C15         C670   1.453       .  S
H16          O17   0.966       .  S
O17         Zr36   2.317   1_554  S
O17         Zr38   2.311   1_554  S
H18          O19   0.966       .  S
O19         Zr37   2.308   1_454  S
O19         Zr39   2.329   1_545  S
O20         Zr36   2.398       .  S
O20          C43   1.285       .  A
O21         Zr37   2.378       .  S
O21          C44   1.282       .  A
O22         Zr38   2.414       .  S
O22          C45   1.283       .  A
O23         Zr39   2.427       .  S
O23          C46   1.293       .  A
O24         Zr39   2.394   1_545  S
O24          C47   1.283   1_554  A
O25         Zr38   2.398   1_544  S
O25          C48   1.285       .  A
O26         Zr40   2.397       .  S
O26          C49   1.282       .  A
O27         Zr40   2.400   1_455  S
O27          C50   1.285       .  A
O28         Zr38   2.397       .  S
O28          C49   1.285       .  A
O29         Zr39   2.391   1_556  S
O29          C50   1.282       .  A
O30         Zr36   2.395       .  S
O30          C45   1.283       .  A
O31         Zr37   2.382   1_554  S
O31          C48   1.279       .  A
O32         Zr37   2.409   1_455  S
O32          C47   1.286       .  A
O33         Zr36   2.383   1_455  S
O33          C46   1.279   1_556  A
O34         Zr40   2.374       .  S
O34          C43   1.281       .  A
O35         Zr40   2.417   1_545  S
O35          C44   1.287       .  A
Zr36         O42   2.309       .  S
Zr36         O54   2.336   1_655  S
Zr37         O41   2.314   1_655  S
Zr37         O52   2.339       .  S
Zr38         O42   2.291       .  S
Zr38         O52   2.320   1_565  S
Zr39         O41   2.325   1_564  S
Zr39         O54   2.314   1_554  S
Zr40         O41   2.310   1_665  S
Zr40         O42   2.325       .  S
Zr40         O54   2.339   1_655  S
Zr40         O52   2.325   1_565  S
C43         C660   1.425       .  S
C44         C643   1.439       .  S
C45         C590   1.480       .  S
C46         C613   1.453       .  S
C47         C623   1.436       .  S
C48         C603   1.426       .  S
C49         C630   1.463       .  S
C50         C653   1.462       .  S
H51          O52   0.965       .  S
H53          O54   0.966       .  S
C55         C583   1.511       .  S
C55          C56   1.390       .  A
C55          C60   1.437   1_655  A
C56          C57   1.382       .  A
C56          H61   1.084       .  S
C57         C703   1.460       .  S
C57          C58   1.387   1_655  A
C58          C59   1.392       .  A
C58          H62   1.085       .  S
C59         C570   1.504       .  S
C59          C60   1.437       .  A
C60          H63   1.082       .  S
O64         Zr76   2.422       .  S
O64          C66   1.283       .  A
O65        Zr102   2.521       .  S
O65          C66   1.308       .  A
C66         C580   1.506       .  S
O67         Zr79   2.385       .  S
O67          C69   1.276       .  A
O68        Zr103   2.525       .  S
O68          C69   1.308       .  A
C69         C520   1.492       .  S
O70         Zr79   2.408       .  S
O70          C72   1.281       .  A
O71        Zr102   2.508       .  S
O71          C72   1.304       .  A
C72         C540   1.499       .  S
O73         Zr76   2.430       .  S
O73          C75   1.286       .  A
O74        Zr103   2.501       .  S
O74          C75   1.303       .  A
C75         C513   1.512       .  S
Zr76         O82   2.373       .  S
Zr76         O83   2.367       .  S
Zr76        O106   2.366   1_455  S
Zr76        O108   2.371   1_455  S
Zr76         O77   2.434       .  S
Zr76         O78   2.436   1_455  S
O77         H120   0.990       .  S
O78         H119   0.990       .  S
O78         H123   0.990       .  S
Zr79         O83   2.368       .  S
Zr79         O82   2.358       .  S
Zr79        O107   2.364   1_545  S
Zr79        O109   2.378   1_545  S
Zr79         O80   2.436       .  S
Zr79         O81   2.432   1_545  S
O80         H121   0.990       .  S
O80         H124   0.990       .  S
O81         H114   0.989       .  S
O82        Zr102   2.397       .  S
O83        Zr103   2.407       .  S
O83         H110   0.966       .  S
O84         Zr96   2.435       .  S
O84          C86   1.287       .  A
O85        Zr103   2.514   1_655  S
O85          C86   1.306       .  A
C86         C503   1.521       .  S
O87         Zr99   2.400       .  S
O87          C89   1.279       .  A
O88        Zr102   2.537   1_565  S
O88          C89   1.311       .  A
C89         C553   1.507       .  S
O90         Zr99   2.408       .  S
O90          C92   1.280       .  A
O91        Zr103   2.532   1_565  S
O91          C92   1.309       .  A
C92         C530   1.507       .  S
O93         Zr96   2.438       .  S
O93          C95   1.284       .  A
O94        Zr102   2.476   1_655  S
O94          C95   1.298       .  A
C95         C560   1.528       .  S
Zr96        O104   2.373   1_545  S
Zr96        O105   2.365   1_545  S
Zr96        O108   2.367       .  S
Zr96        O106   2.372       .  S
Zr96         O97   2.434   1_545  S
Zr96         O98   2.434       .  S
O97         H117   0.989       .  S
O97         H122   0.990       .  S
O98         H118   0.990       .  S
Zr99        O105   2.369   1_455  S
Zr99        O104   2.371   1_455  S
Zr99        O109   2.364       .  S
Zr99        O107   2.370       .  S
Zr99        O100   2.435   1_455  S
Zr99        O101   2.435       .  S
O100        H116   0.990       .  S
O101        H115   0.990       .  S
O101        H125   0.990       .  S
Zr102       O105   2.394   1_445  S
Zr102       O107   2.397   1_545  S
Zr102       O108   2.404   1_455  S
Zr103       O104   2.402   1_445  S
Zr103       O106   2.404   1_455  S
Zr103       O109   2.399   1_545  S
O104        H112   0.965       .  S
O107        H111   0.966       .  S
O108        H113   0.966       .  S
C126        C563   1.541       .  S
C126        C127   1.459       .  A
C126        C131   1.399       .  A
C127        C128   1.447       .  A
C127        H132   1.081   1_545  S
C128        C493   1.510   1_545  S
C128        C129   1.386       .  A
C129        C130   1.369       .  A
C129        H133   1.084       .  S
C130        C690   1.476       .  S
C130        C131   1.387       .  A
C131        H134   1.077       .  S
C135        C480   1.501       .  S
C135        C136   1.382   1_455  A
C135        C140   1.446       .  A
C136        C137   1.363       .  A
C136        H141   1.089       .  S
C137        C680   1.416       .  S
C137        C138   1.368       .  A
C138        C139   1.386       .  A
C138        H142   1.087       .  S
C139        C550   1.507       .  S
C139        C140   1.447   1_655  A
C140        H143   1.082       .  S
C144        C473   1.497       .  S
C144        C145   1.393   1_545  A
C144        C149   1.429       .  A
C145        C146   1.386       .  A
C145        H150   1.086       .  S
C146        C673   1.455       .  S
C146        C147   1.378       .  A
C147        C148   1.394   1_565  A
C147        H151   1.086       .  S
C148        C543   1.490       .  S
C148        C149   1.429       .  A
C149        H152   1.082       .  S
C153        C533   1.512       .  S
C153        C154   1.397       .  A
C153        C158   1.447       .  A
C154        C155   1.369       .  A
C154        H159   1.087       .  S
C155        C663   1.444       .  S
C155        C156   1.377       .  A
C156        C157   1.391       .  A
C156        H160   1.086       .  S
C157        C460   1.518   1_655  S
C157        C158   1.445       .  A
C158        H161   1.081   1_655  S
C162        C523   1.493       .  S
C162        C163   1.429   1_565  A
C162        C167   1.400       .  A
C163        C164   1.426       .  A
C163        H168   1.082       .  S
C164        C450   1.502       .  S
C164        C165   1.391   1_545  A
C165        C166   1.387       .  A
C165        H169   1.083       .  S
C166        C650   1.468       .  S
C166        C167   1.380       .  A
C167        H170   1.085       .  S
C171        C510   1.501   1_655  S
C171        C172   1.390       .  A
C171        C176   1.434       .  A
C172        C173   1.380       .  A
C172        H177   1.086       .  S
C173        C640   1.452       .  S
C173        C174   1.378       .  A
C174        C175   1.396       .  A
C174        H178   1.086       .  S
C175        C440   1.500       .  S
C175        C176   1.436       .  A
C176        H179   1.082   1_655  S
C180        C500   1.504   1_565  S
C180        C181   1.388       .  A
C180        C185   1.432   1_565  A
C181        C182   1.395       .  A
C181        H186   1.083       .  S
C182        C633   1.476       .  S
C182        C183   1.382       .  A
C183        C184   1.401       .  A
C183        H187   1.082       .  S
C184        C433   1.513       .  S
C184        C185   1.436   1_565  A
C185        H188   1.082       .  S
O189       Zr201   2.414       .  S
O189        C191   1.282       .  A
O190       Zr227   2.506       .  S
O190        C191   1.304       .  A
C191        C393   1.511       .  S
O192       Zr204   2.437       .  S
O192        C194   1.287       .  A
O193       Zr228   2.486   1_554  S
O193        C194   1.300       .  A
C194        C470   1.506       .  S
O195       Zr204   2.426       .  S
O195        C197   1.284       .  A
O196       Zr227   2.523       .  S
O196        C197   1.308       .  A
C197        C490   1.529   1_545  S
O198       Zr201   2.401   1_556  S
O198        C200   1.279       .  A
O199       Zr228   2.502       .  S
O199        C200   1.303       .  A
C200        C420   1.487       .  S
Zr201       O207   2.366       .  S
Zr201       O208   2.366       .  S
Zr201       O231   2.368   1_554  S
Zr201       O233   2.362   1_554  S
Zr201       O202   2.431       .  S
Zr201       O203   2.436   1_554  S
O202        H245   0.989       .  S
O203        H244   0.990       .  S
O203        H248   0.990       .  S
Zr204       O208   2.364       .  S
Zr204       O207   2.378       .  S
Zr204       O232   2.371   1_545  S
Zr204       O234   2.369   1_545  S
Zr204       O205   2.436       .  S
Zr204       O206   2.435   1_545  S
O205        H246   0.990       .  S
O205        H249   0.990       .  S
O206        H239   0.990       .  S
O207       Zr227   2.405       .  S
O208       Zr228   2.395   1_554  S
O208        H235   0.966       .  S
O209       Zr221   2.432       .  S
O209        C211   1.285       .  A
O210       Zr228   2.489       .  S
O210        C211   1.300       .  A
C211        C453   1.516       .  S
O212       Zr224   2.417       .  S
O212        C214   1.283       .  A
O213       Zr227   2.509   1_565  S
O213        C214   1.305       .  A
C214        C410   1.500       .  S
O215       Zr224   2.421       .  S
O215        C217   1.284       .  A
O216       Zr228   2.502   1_564  S
O216        C217   1.303       .  A
C217        C400   1.502       .  S
O218       Zr221   2.406       .  S
O218        C220   1.281       .  A
O219       Zr227   2.544   1_556  S
O219        C220   1.312       .  A
C220        C430   1.512       .  S
Zr221       O229   2.362   1_545  S
Zr221       O230   2.371   1_545  S
Zr221       O233   2.375       .  S
Zr221       O231   2.363       .  S
Zr221       O222   2.434   1_545  S
Zr221       O223   2.433       .  S
O222        H242   0.989       .  S
O222        H247   0.990       .  S
O223        H243   0.990       .  S
Zr224       O230   2.373   1_554  S
Zr224       O229   2.373   1_554  S
Zr224       O234   2.370       .  S
Zr224       O232   2.363       .  S
Zr224       O225   2.436   1_554  S
Zr224       O226   2.433       .  S
O225        H241   0.990       .  S
O226        H240   0.989       .  S
O226        H250   0.990       .  S
Zr227       O230   2.401   1_544  S
Zr227       O232   2.405   1_545  S
Zr227       O233   2.402   1_554  S
Zr228       O229   2.396   1_545  S
Zr228       O231   2.395       .  S
Zr228       O234   2.401   1_546  S
O229        H237   0.966       .  S
O232        H236   0.966       .  S
O233        H238   0.966       .  S
O251       Zr263   2.440       .  S
O251        C253   1.288       .  A
O252       Zr289   2.469   1_556  S
O252        C253   1.297       .  A
C253        C380   1.499       .  S
O254       Zr266   2.393       .  S
O254        C256   1.277       .  A
O255       Zr290   2.541       .  S
O255        C256   1.311       .  A
C256        C483   1.505       .  S
O257       Zr266   2.415       .  S
O257        C259   1.281       .  A
O258       Zr289   2.523       .  S
O258        C259   1.307       .  A
C259        C573   1.506       .  S
O260       Zr263   2.422       .  S
O260        C262   1.285       .  A
O261       Zr290   2.507   1_556  S
O261        C262   1.305       .  A
C262        C370   1.506       .  S
Zr263       O269   2.369   1_556  S
Zr263       O270   2.377   1_556  S
Zr263       O293   2.370       .  S
Zr263       O295   2.364       .  S
Zr263       O264   2.433   1_556  S
Zr263       O265   2.434       .  S
O264        H307   0.990       .  S
O265        H306   0.990       .  S
O265        H310   0.990       .  S
Zr266       O270   2.376       .  S
Zr266       O269   2.363       .  S
Zr266       O294   2.370   1_455  S
Zr266       O296   2.375   1_455  S
Zr266       O267   2.437       .  S
Zr266       O268   2.437   1_455  S
O267        H308   0.990       .  S
O267        H311   0.990       .  S
O268        H301   0.990       .  S
O269       Zr289   2.389       .  S
O270       Zr290   2.409       .  S
O270        H297   0.966       .  S
O271       Zr283   2.415       .  S
O271        C273   1.280       .  A
O272       Zr290   2.532   1_556  S
O272        C273   1.309       .  A
C273        C463   1.538   1_455  S
O274       Zr286   2.427   1_556  S
O274        C276   1.282       .  A
O275       Zr289   2.473   1_655  S
O275        C276   1.298   1_554  A
C276        C360   1.513       .  S
O277       Zr286   2.424       .  S
O277        C279   1.285       .  A
O278       Zr290   2.502   1_655  S
O278        C279   1.303       .  A
C279        C350   1.506   1_554  S
O280       Zr283   2.412       .  S
O280        C282   1.282       .  A
O281       Zr289   2.508   1_556  S
O281        C282   1.304       .  A
C282        C443   1.497   1_455  S
Zr283       O291   2.364   1_455  S
Zr283       O292   2.358   1_455  S
Zr283       O295   2.369       .  S
Zr283       O293   2.367       .  S
Zr283       O284   2.436   1_455  S
Zr283       O285   2.434       .  S
O284        H304   0.989       .  S
O284        H309   0.990       .  S
O285        H305   0.990       .  S
Zr286       O292   2.366   1_554  S
Zr286       O291   2.374   1_554  S
Zr286       O296   2.367       .  S
Zr286       O294   2.367       .  S
Zr286       O287   2.431   1_554  S
Zr286       O288   2.434       .  S
O287        H303   0.990       .  S
O288        H302   0.990       .  S
O288        H312   0.990       .  S
Zr289       O292   2.390   1_454  S
Zr289       O294   2.397   1_455  S
Zr289       O295   2.401   1_554  S
Zr290       O291   2.405   1_454  S
Zr290       O293   2.401   1_554  S
Zr290       O296   2.402   1_455  S
O291        H299   0.965       .  S
O294        H298   0.966       .  S
O295        H300   0.966       .  S
C313        C423   1.485       .  S
C313        C314   1.392       .  A
C313        C318   1.428   1_556  A
C314        C315   1.376       .  A
C314        H319   1.087       .  S
C315        C620   1.444       .  S
C315        C316   1.381       .  A
C316        C317   1.398   1_556  A
C316        H320   1.086       .  S
C317        C383   1.498       .  S
C317        C318   1.429       .  A
C318        H321   1.082       .  S
C322        C403   1.497       .  S
C322        C323   1.401       .  A
C322        C327   1.428   1_554  A
C323        C324   1.387       .  A
C323        H328   1.084       .  S
C324        C610   1.471       .  S
C324        C325   1.392       .  A
C325        C326   1.390       .  A
C325        H329   1.085       .  S
C326        C373   1.494   1_554  S
C326        C327   1.425   1_554  A
C327        H330   1.082       .  S
C331        C363   1.509   1_554  S
C331        C332   1.396       .  A
C331        C336   1.438   1_554  A
C332        C333   1.384       .  A
C332        H337   1.085       .  S
C333        C600   1.452       .  S
C333        C334   1.382       .  A
C334        C335   1.398       .  A
C334        H338   1.086       .  S
C335        C390   1.501   1_554  S
C335        C336   1.434   1_554  A
C336        H339   1.082       .  S
C340        C353   1.497       .  S
C340        C341   1.396       .  A
C340        C345   1.426   1_556  A
C341        C342   1.387       .  A
C341        H346   1.076       .  S
C342        C593   1.489       .  S
C342        C343   1.402       .  A
C343        C344   1.393       .  A
C343        H347   1.082       .  S
C344        C413   1.495       .  S
C344        C345   1.423   1_556  A
C345        H348   1.082       .  S
C349        C350   1.413   1_554  A
C349        C354   1.421       .  A
C349       Br356   1.926       .  S
C350        C351   1.420       .  A
C351        C352   1.412       .  A
C351       Br358   1.930       .  S
C352        C353   1.409       .  A
C352       Br357   1.932       .  S
C353        C354   1.419   1_556  A
C354       Br355   1.929       .  S
C359        C360   1.412       .  A
C359        C364   1.410       .  A
C359       Br366   1.941       .  S
C360        C361   1.432   1_556  A
C361        C362   1.420       .  A
C361       Br368   1.934       .  S
C362        C363   1.407   1_554  A
C362       Br367   1.932       .  S
C363        C364   1.426       .  A
C364       Br365   1.925       .  S
C369        C370   1.412       .  A
C369        C374   1.418       .  A
C369       Br376   1.919       .  S
C370        C371   1.420   1_556  A
C371        C372   1.415       .  A
C371       Br378   1.928       .  S
C372        C373   1.408   1_554  A
C372       Br377   1.929       .  S
C373        C374   1.416       .  A
C374       Br375   1.929       .  S
C379        C380   1.409   1_554  A
C379        C384   1.406       .  A
C379       Br386   1.926       .  S
C380        C381   1.422       .  A
C381        C382   1.420       .  A
C381       Br388   1.926       .  S
C382        C383   1.409   1_556  A
C382       Br387   1.927       .  S
C383        C384   1.414       .  A
C384       Br385   1.928       .  S
C389        C390   1.406   1_554  A
C389        C394   1.419       .  A
C389       Br396   1.927       .  S
C390        C391   1.412       .  A
C391        C392   1.410       .  A
C391       Br398   1.918       .  S
C392        C393   1.409   1_556  A
C392       Br397   1.922       .  S
C393        C394   1.428       .  A
C394       Br395   1.926       .  S
C399        C400   1.417       .  A
C399        C404   1.411       .  A
C399       Br406   1.927       .  S
C400        C401   1.414   1_554  A
C401        C402   1.422       .  A
C401       Br408   1.928       .  S
C402        C403   1.416   1_556  A
C402       Br407   1.929       .  S
C403        C404   1.408       .  A
C404       Br405   1.930       .  S
C409        C410   1.414       .  A
C409        C414   1.420       .  A
C409       Br416   1.921       .  S
C410        C411   1.413   1_554  A
C411        C412   1.410       .  A
C411       Br418   1.926       .  S
C412        C413   1.413       .  A
C412       Br417   1.933       .  S
C413        C414   1.412   1_556  A
C414       Br415   1.924       .  S
C419        C420   1.409       .  A
C419        C424   1.411       .  A
C419       Br426   1.928       .  S
C420        C421   1.414   1_556  A
C421        C422   1.413       .  A
C421       Br428   1.929       .  S
C422        C423   1.409   1_554  A
C422       Br427   1.926       .  S
C423        C424   1.414       .  A
C424       Br425   1.928       .  S
C429        C430   1.415       .  A
C429        C434   1.424       .  A
C429       Br436   1.919       .  S
C430        C431   1.417   1_545  A
C431        C432   1.416       .  A
C431       Br438   1.923       .  S
C432        C433   1.415       .  A
C432       Br437   1.932       .  S
C433        C434   1.419   1_565  A
C434       Br435   1.926       .  S
C439        C440   1.414   1_455  A
C439        C444   1.421       .  A
C439       Br446   1.927       .  S
C440        C441   1.415       .  A
C441        C442   1.414       .  A
C441       Br448   1.929       .  S
C442        C443   1.413       .  A
C442       Br447   1.931       .  S
C443        C444   1.413   1_655  A
C444       Br445   1.925       .  S
C449        C450   1.418       .  A
C449        C454   1.415       .  A
C449       Br456   1.935       .  S
C450        C451   1.404   1_545  A
C451        C452   1.417       .  A
C451       Br458   1.933       .  S
C452        C453   1.431   1_565  A
C452       Br457   1.928       .  S
C453        C454   1.418       .  A
C454       Br455   1.931       .  S
C459        C460   1.403   1_655  A
C459        C464   1.426       .  A
C459       Br466   1.932       .  S
C460        C461   1.423       .  A
C461        C462   1.418       .  A
C461       Br468   1.927       .  S
C462        C463   1.416   1_455  A
C462       Br467   1.933       .  S
C463        C464   1.444       .  A
C464       Br465   1.932       .  S
C469        C470   1.420   1_565  A
C469        C474   1.417       .  A
C469       Br476   1.930       .  S
C470        C471   1.414       .  A
C471        C472   1.416       .  A
C471       Br478   1.925       .  S
C472        C473   1.416       .  A
C472       Br477   1.932       .  S
C473        C474   1.409   1_545  A
C474       Br475   1.930       .  S
C479        C480   1.416   1_655  A
C479        C484   1.421       .  A
C479       Br486   1.927       .  S
C480        C481   1.417       .  A
C481        C482   1.422       .  A
C481       Br488   1.926       .  S
C482        C483   1.414       .  A
C482       Br487   1.926       .  S
C483        C484   1.417   1_455  A
C484       Br485   1.928       .  S
C489        C490   1.434   1_545  A
C489        C494   1.423       .  A
C489       Br496   1.928       .  S
C490        C491   1.415       .  A
C491        C492   1.419       .  A
C491       Br498   1.930       .  S
C492        C493   1.421       .  A
C492       Br497   1.916       .  S
C493        C494   1.405   1_565  A
C494       Br495   1.929       .  S
C499        C500   1.407   1_565  A
C499        C504   1.417       .  A
C499       Br506   1.933       .  S
C500        C501   1.419       .  A
C501        C502   1.424       .  A
C501       Br508   1.928       .  S
C502        C503   1.418       .  A
C502       Br507   1.928       .  S
C503        C504   1.425   1_545  A
C504       Br505   1.926       .  S
C509        C510   1.418       .  A
C509        C514   1.418       .  A
C509       Br516   1.931       .  S
C510        C511   1.409   1_455  A
C511        C512   1.419       .  A
C511       Br518   1.929       .  S
C512        C513   1.423   1_655  A
C512       Br517   1.930       .  S
C513        C514   1.413       .  A
C514       Br515   1.923       .  S
C519        C520   1.414   1_565  A
C519        C524   1.411       .  A
C519       Br526   1.926       .  S
C520        C521   1.413       .  A
C521        C522   1.417       .  A
C521       Br528   1.924       .  S
C522        C523   1.414   1_545  A
C522       Br527   1.927       .  S
C523        C524   1.412       .  A
C524       Br525   1.929       .  S
C529        C530   1.416       .  A
C529        C534   1.424       .  A
C529       Br536   1.914       .  S
C530        C531   1.414   1_455  A
C531        C532   1.417       .  A
C531       Br538   1.930       .  S
C532        C533   1.420       .  A
C532       Br537   1.930       .  S
C533        C534   1.412   1_655  A
C534       Br535   1.926       .  S
C539        C540   1.411       .  A
C539        C544   1.417       .  A
C539       Br546   1.918       .  S
C540        C541   1.418   1_545  A
C541        C542   1.414       .  A
C541       Br548   1.926       .  S
C542        C543   1.409   1_565  A
C542       Br547   1.927       .  S
C543        C544   1.411       .  A
C544       Br545   1.927       .  S
C549        C550   1.411   1_455  A
C549        C554   1.422       .  A
C549       Br556   1.927       .  S
C550        C551   1.423       .  A
C551        C552   1.421       .  A
C551       Br558   1.930       .  S
C552        C553   1.412   1_655  A
C552       Br557   1.929       .  S
C553        C554   1.419       .  A
C554       Br555   1.924       .  S
C559        C560   1.435       .  A
C559        C564   1.429       .  A
C559       Br566   1.935       .  S
C560        C561   1.410       .  A
C561        C562   1.409       .  A
C561       Br568   1.948   1_545  S
C562        C563   1.446       .  A
C562       Br567   1.947       .  S
C563        C564   1.415       .  A
C564       Br565   1.934       .  S
C569        C570   1.416   1_655  A
C569        C574   1.420       .  A
C569       Br576   1.928       .  S
C570        C571   1.414       .  A
C571        C572   1.420       .  A
C571       Br578   1.926       .  S
C572        C573   1.418       .  A
C572       Br577   1.928       .  S
C573        C574   1.413   1_455  A
C574       Br575   1.929       .  S
C579        C580   1.418       .  A
C579        C584   1.421       .  A
C579       Br586   1.925       .  S
C580        C581   1.412   1_455  A
C581        C582   1.419       .  A
C581       Br588   1.929       .  S
C582        C583   1.421       .  A
C582       Br587   1.929       .  S
C583        C584   1.414   1_655  A
C584       Br585   1.927       .  S
C589        C590   1.419       .  A
C589        C594   1.395       .  A
C589       Br596   1.940   1_556  S
C590        C591   1.423       .  A
C591        C592   1.403       .  A
C591       Br598   1.929       .  S
C592        C593   1.401       .  A
C592       Br597   1.931       .  S
C593        C594   1.411       .  A
C594       Br595   1.934       .  S
C599        C600   1.417   1_556  A
C599        C604   1.379       .  A
C599       Br606   1.916       .  S
C600        C601   1.401       .  A
C601        C602   1.399       .  A
C601       Br608   1.928       .  S
C602        C603   1.409       .  A
C602       Br607   1.923       .  S
C603        C604   1.387   1_554  A
C604       Br605   1.940       .  S
C609        C610   1.413       .  A
C609        C614   1.404       .  A
C609       Br616   1.929       .  S
C610        C611   1.414       .  A
C611        C612   1.383   1_554  A
C611       Br618   1.926   1_554  S
C612        C613   1.389   1_556  A
C612       Br617   1.921       .  S
C613        C614   1.407       .  A
C614       Br615   1.923       .  S
C619        C620   1.404       .  A
C619        C624   1.394       .  A
C619       Br626   1.930       .  S
C620        C621   1.404   1_556  A
C621        C622   1.391       .  A
C621       Br628   1.929       .  S
C622        C623   1.401   1_554  A
C622       Br627   1.927       .  S
C623        C624   1.404       .  A
C624       Br625   1.928       .  S
C629        C630   1.407       .  A
C629        C634   1.389       .  A
C629       Br636   1.941   1_565  S
C630        C631   1.415       .  A
C631        C632   1.400       .  A
C631       Br638   1.931       .  S
C632        C633   1.407       .  A
C632       Br637   1.933       .  S
C633        C634   1.417       .  A
C634       Br635   1.937       .  S
C639        C640   1.404       .  A
C639        C644   1.395       .  A
C639       Br646   1.932       .  S
C640        C641   1.414   1_655  A
C641        C642   1.388       .  A
C641       Br648   1.933       .  S
C642        C643   1.403   1_455  A
C642       Br647   1.937       .  S
C643        C644   1.408       .  A
C644       Br645   1.928       .  S
C649        C650   1.422       .  A
C649        C654   1.397   1_565  A
C649       Br656   1.937   1_565  S
C650        C651   1.407       .  A
C651        C652   1.389       .  A
C651       Br658   1.935       .  S
C652        C653   1.407       .  A
C652       Br657   1.934       .  S
C653        C654   1.410   1_565  A
C654       Br655   1.945       .  S
C659        C660   1.402       .  A
C659        C664   1.385       .  A
C659       Br666   1.900       .  S
C660        C661   1.391   1_655  A
C661        C662   1.388   1_455  A
C661       Br668   1.940       .  S
C662        C663   1.423       .  A
C662       Br667   1.924   1_655  S
C663        C664   1.395       .  A
C664       Br665   1.933       .  S
C669        C670   1.400   1_545  A
C669        C674   1.391       .  A
C669       Br676   1.925       .  S
C670        C671   1.412       .  A
C671        C672   1.394       .  A
C671       Br678   1.923       .  S
C672        C673   1.403       .  A
C672       Br677   1.935       .  S
C673        C674   1.413   1_565  A
C674       Br675   1.930       .  S
C679        C680   1.397   1_455  A
C679        C684   1.378       .  A
C679       Br686   1.938       .  S
C680        C681   1.403       .  A
C681        C682   1.386       .  A
C681       Br688   1.931       .  S
C682        C683   1.398       .  A
C682       Br687   1.928       .  S
C683        C684   1.403   1_655  A
C684       Br685   1.921       .  S
C689        C690   1.408       .  A
C689        C694   1.396       .  A
C689       Br696   1.935       .  S
C690        C691   1.433   1_545  A
C691        C692   1.390       .  A
C691       Br698   1.935       .  S
C692        C693   1.393   1_565  A
C692       Br697   1.942       .  S
C693        C694   1.414       .  A
C694       Br695   1.931       .  S
C699        C700   1.422       .  A
C699        C704   1.395       .  A
C699       Br706   1.939       .  S
C700        C701   1.413       .  A
C701        C702   1.387   1_655  A
C701       Br708   1.939       .  S
C702        C703   1.410   1_455  A
C702       Br707   1.939       .  S
C703        C704   1.408       .  A
C704       Br705   1.939       .  S
