geometry optimzed in LAMMPS
_audit_creation_date              2020-12-01 
_audit_creation_method            'lammps2cif' 
_symmetry_space_group_name_H-M    'P1' 
_symmetry_Int_Tables_number       1 
_symmetry_cell_setting            triclinic 
loop_ 
_symmetry_equiv_pos_as_xyz 
  x,y,z 
_cell_length_a                    62.77836787 
_cell_length_b                    62.59400768462209 
_cell_length_c                    50.806863719132075 
_cell_angle_alpha                 89.3665808169454 
_cell_angle_beta                  90.12181408534303 
_cell_angle_gamma                 122.87032393054915 
loop_ 
_atom_site_label 
_atom_site_type_symbol 
_atom_site_fract_x 
_atom_site_fract_y 
_atom_site_fract_z 
_atom_site_charge 
C1          C  0.52678838  0.84743683  0.49598579     0.03900
C2          C  0.52435745  0.85429154  0.02003841    -0.12200
C3          C  0.52152252  0.87505273  0.02061883     0.01400
C4          C  0.52344128  0.88775713  0.99702672    -0.10800
C5          C  0.53071853  0.88471834  0.47446122     0.03900
C6          C  0.53164673  0.86280347  0.47341718    -0.10200
H7          H  0.52323963  0.84466956  0.03828347     0.09500
H8          H  0.52155394  0.90389672  0.99743613     0.07000
H9          H  0.53610346  0.85767896  0.45496864     0.06900
C10         C  0.32536215  0.88797805  0.49634238     0.03900
C11         C  0.34046867  0.89797522  0.47367238    -0.12200
C12         C  0.36439708  0.92092242  0.47480309     0.01400
C13         C  0.37280845  0.93366944  0.49903268    -0.10800
C14         C  0.35524464  0.92494207  0.02490117     0.03900
C15         C  0.33031901  0.90360817  0.02468249    -0.10200
H16         H  0.33420355  0.88713925  0.45568664     0.09500
H17         H  0.39150673  0.95080402  0.50008954     0.07000
H18         H  0.31910433  0.89774931  0.04256205     0.06900
O19         O  0.45661776  0.97870324  0.28911745    -0.74500
O20         O  0.48939405  0.99828294  0.31819844    -0.53400
C21         C  0.46570558  0.98380520  0.31264824     0.79200
O22         O  0.52792629  0.96001818  0.20064027    -0.59100
O23         O  0.52449907  0.98488394  0.16991151    -0.52100
C24         C  0.52594738  0.96586097  0.17678788     0.71200
O25         O  0.52961253  0.96224633  0.28972741    -0.73700
O26         O  0.53038146  0.99019610  0.31877311    -0.54200
C27         C  0.53081281  0.97049958  0.31317208     0.77200
O28         O  0.45616297  0.98733877  0.19968689    -0.58800
O29         O  0.48813974  0.00267768  0.16938311    -0.51900
C30         C  0.46487740  0.99284845  0.17589011     0.73800
Zr31       Zr  0.47360155  0.99079101  0.24408875     2.54700
O32         O  0.44397343  0.94510256  0.23957955    -0.79400
O33         O  0.43993061  0.99890127  0.24800660    -0.92800
Zr34       Zr  0.52724632  0.97506961  0.24458437     2.64700
O35         O  0.49266528  0.93054571  0.24756393    -0.97700
O36         O  0.55925289  0.96445741  0.24463284    -0.79800
O37         O  0.50052612  0.98303807  0.26966099    -0.83200
O38         O  0.49959755  0.98183570  0.21888145    -2.17900
O39         O  0.52383626  0.07779609  0.19747177    -0.66600
O40         O  0.52536558  0.05143042  0.16792849    -0.51100
C41         C  0.52369679  0.07039829  0.17388593     0.72200
O42         O  0.59911327  0.06252601  0.28562121    -0.59500
O43         O  0.56767345  0.04249177  0.31648070    -0.51400
C44         C  0.59102990  0.05700585  0.30949936     0.74000
O45         O  0.59810415  0.05769663  0.19722360    -0.70900
O46         O  0.56525340  0.03953868  0.16818590    -0.49500
C47         C  0.58897327  0.05245884  0.17378164     0.75400
O48         O  0.52936847  0.08192180  0.28591280    -0.66200
O49         O  0.53011704  0.05542714  0.31655147    -0.53400
C50         C  0.53037177  0.07541777  0.30977670     0.73800
Zr51       Zr  0.52744257  0.06525603  0.24215014     2.77500
O52         O  0.56241739  0.10962212  0.23932292    -0.96900
O53         O  0.49477967  0.07483053  0.24507696    -0.77800
Zr54       Zr  0.58090207  0.04925126  0.24190033     2.70100
O55         O  0.61487390  0.09403137  0.23995876    -0.79000
O56         O  0.61114632  0.03633236  0.24410677    -0.98100
Zr57       Zr  0.52816067  0.02116748  0.29275891     2.21500
Zr58       Zr  0.52670663  0.01938205  0.19362491     2.11100
O59         O  0.55427617  0.05758255  0.21670806    -2.46800
O60         O  0.55499542  0.05828018  0.26719693    -0.78800
O61         O  0.50008774  0.02778807  0.21828074    -0.71000
O62         O  0.55491857  0.01261595  0.26833155    -2.32000
O63         O  0.50036176  0.02853791  0.26836402    -2.28200
O64         O  0.55415736  0.01152412  0.21794939    -0.72800
H65         H  0.48909000  0.96752160  0.20765425     0.79200
H66         H  0.56555833  0.00993560  0.27984579     0.80300
H67         H  0.56433405  0.07164979  0.20466191     0.82600
H68         H  0.49027914  0.03173832  0.27999948     0.80200
H69         H  0.57341886  0.97804273  0.25503225     0.43200
H70         H  0.60959013  0.02965392  0.26223989     0.42200
H71         H  0.60605205  0.10318155  0.24039155     0.41800
H72         H  0.56857001  0.11218091  0.22091699     0.39800
H73         H  0.47983487  0.06030557  0.23644179     0.42900
H74         H  0.44625309  0.01268010  0.26104737     0.37700
H75         H  0.42740864  0.94300934  0.23619104     0.43800
H76         H  0.48270370  0.92746131  0.23131738     0.40200
H77         H  0.55424854  0.11936981  0.24050496     0.45100
H78         H  0.42585943  0.98368862  0.25711577     0.43900
H79         H  0.50091632  0.92098890  0.24508731     0.44000
H80         H  0.60375593  0.02113445  0.23283896     0.44400
C81         C  0.50412917  0.17945673  0.48993477     0.03900
C82         C  0.51274577  0.17493310  0.01474715    -0.12200
C83         C  0.51432343  0.15338288  0.01506773     0.01400
C84         C  0.52032425  0.14612263  0.99169856    -0.10800
C85         C  0.51492657  0.15165862  0.46835169     0.03900
C86         C  0.51157203  0.17209429  0.46738918    -0.10200
H87         H  0.50838064  0.18075839  0.03282904     0.09500
H88         H  0.52170007  0.12964645  0.99182678     0.07000
H89         H  0.51492517  0.18237395  0.44905404     0.06900
C90         C  0.72238914  0.16086189  0.49356588     0.03900
C91         C  0.71246990  0.14769623  0.46979571    -0.12200
C92         C  0.68790146  0.12579426  0.46888329     0.01400
C93         C  0.67331213  0.11727508  0.49194370    -0.10800
C94         C  0.68980661  0.12140717  0.01323358     0.03900
C95         C  0.71358410  0.14433037  0.01339568    -0.10200
H96         H  0.72394984  0.15426548  0.45209273     0.09500
H97         H  0.65428707  0.10053189  0.49146067     0.07000
H98         H  0.72097230  0.15442577  0.03170331     0.06900
O99         O  0.08066235  0.52651702  0.30460127    -0.74500
O100        O  0.05211957  0.52429820  0.33402647    -0.53400
C101        C  0.07222551  0.52462207  0.32821517     0.79200
O102        O  0.05671704  0.60071695  0.21781136    -0.59100
O103        O  0.03900799  0.56895530  0.18766932    -0.52100
C104        C  0.05096238  0.59240682  0.19418206     0.71200
O105        O  0.05797467  0.59660937  0.30611036    -0.73700
O106        O  0.03975911  0.56317729  0.33505251    -0.54200
C107        C  0.05302667  0.58705756  0.32953944     0.77200
O108        O  0.08312425  0.53195738  0.21521076    -0.58800
O109        O  0.05685377  0.53457015  0.18618377    -0.51900
C110        C  0.07661177  0.53426354  0.19181060     0.73800
Zr111      Zr  0.06712921  0.52923648  0.25989440     2.54700
O112        O  0.11168387  0.56351722  0.26163872    -0.79400
O113        O  0.07723697  0.49680988  0.25812996    -0.92800
Zr114      Zr  0.04781779  0.58069048  0.26126463     2.64700
O115        O  0.09297204  0.61380725  0.26113872    -0.97700
O116        O  0.03516974  0.61115755  0.26351494    -0.79800
O117        O  0.05790680  0.55477527  0.28575204    -0.83200
O118        O  0.05911252  0.55687452  0.23565642    -2.17900
O119        O  0.98581240  0.45777895  0.21242103    -0.66600
O120        O  0.00483463  0.49213182  0.18458121    -0.51100
C121        C  0.99207037  0.46809624  0.18923309     0.72200
O122        O  0.95815167  0.52131845  0.30408444    -0.59500
O123        O  0.98471133  0.52002670  0.33383232    -0.51400
C124        C  0.96457795  0.51953096  0.32776269     0.74000
O125        O  0.96057326  0.52695848  0.21429860    -0.70900
O126        O  0.98988381  0.52958979  0.18575889    -0.49500
C127        C  0.96946229  0.52871458  0.19091829     0.75400
O128        O  0.98451895  0.45418514  0.30307193    -0.66200
O129        O  0.00217941  0.48647900  0.33267927    -0.53400
C130        C  0.99026104  0.46295332  0.32672612     0.73800
Zr131      Zr  0.99320889  0.47305169  0.25814242     2.77500
O132        O  0.94835493  0.43940587  0.25623038    -0.96900
O133        O  0.00580687  0.44249599  0.25727227    -0.77800
Zr134      Zr  0.97463864  0.52510896  0.25924667     2.70100
O135        O  0.93050341  0.48972803  0.25760759    -0.79000
O136        O  0.96332641  0.55659006  0.26164977    -0.98100
Zr137      Zr  0.01996186  0.52539066  0.30875266     2.21500
Zr138      Zr  0.02191028  0.52946834  0.21124884     2.11100
O139        O  0.98369091  0.49947233  0.23360527    -2.46800
O140        O  0.98283040  0.49778085  0.28389475    -0.78800
O141        O  0.03082599  0.50189640  0.23393205    -0.71000
O142        O  0.01046808  0.55251886  0.28572368    -2.32000
O143        O  0.02979270  0.49998517  0.28367180    -2.28200
O144        O  0.01252943  0.55170039  0.23851643    -0.72800
H145        H  0.07333063  0.56819593  0.22439522     0.79200
H146        H  0.00662708  0.56189219  0.29766108     0.80300
H147        H  0.97005073  0.48942610  0.22143853     0.82600
H148        H  0.03323458  0.48960468  0.29480392     0.80200
H149        H  0.05073335  0.62722652  0.26895034     0.43200
H150        H  0.97460148  0.56993299  0.24869987     0.42200
H151        H  0.92053607  0.49748466  0.26050622     0.41800
H152        H  0.94358614  0.43250884  0.27439314     0.39800
H153        H  0.99004212  0.42612879  0.25296424     0.42900
H154        H  0.09550124  0.50628606  0.25355285     0.37700
H155        H  0.11201077  0.57645030  0.27298555     0.43800
H156        H  0.09898845  0.61457149  0.24294089     0.40200
H157        H  0.93961599  0.44846651  0.25333552     0.45100
H158        H  0.06851481  0.48690966  0.24218766     0.43900
H159        H  0.09377160  0.62993879  0.26320203     0.44000
H160        H  0.94620745  0.54817097  0.25378067     0.44400
C161        C  0.18435798  0.50602208  0.51002265     0.03900
C162        C  0.17491497  0.50875484  0.03710406    -0.12200
C163        C  0.15508459  0.51277509  0.03855715     0.01400
C164        C  0.14265306  0.51219472  0.01531541    -0.10800
C165        C  0.15198948  0.51077017  0.48873654     0.03900
C166        C  0.17195109  0.50669813  0.48709658    -0.10200
H167        H  0.18473206  0.50947207  0.05493290     0.09500
H168        H  0.12697866  0.51471968  0.01644686     0.07000
H169        H  0.17733209  0.50330881  0.46815498     0.06900
C170        C  0.88620500  0.32202751  0.51042534     0.03900
C171        C  0.89886348  0.33349850  0.48663500    -0.12200
C172        C  0.91959234  0.35878725  0.48553291     0.01400
C173        C  0.92859804  0.37227841  0.50926928    -0.10800
C174        C  0.91314223  0.36303736  0.03325618     0.03900
C175        C  0.89122077  0.33813754  0.03331111    -0.10200
H176        H  0.89249263  0.32268459  0.46872887     0.09500
H177        H  0.94012813  0.39419781  0.00795612     0.07000
H178        H  0.88227870  0.32864339  0.05170383     0.06900
C179        C  0.84734524  0.52605318  0.50880324     0.03900
C180        C  0.85607461  0.52816359  0.03147709    -0.12200
C181        C  0.87729212  0.52633263  0.03428574     0.01400
C182        C  0.88849187  0.52382659  0.01163311    -0.10800
C183        C  0.88018435  0.52158892  0.48874918     0.03900
C184        C  0.85852316  0.52275457  0.48652355    -0.10200
H185        H  0.84707322  0.52973128  0.04884527     0.09500
H186        H  0.90431603  0.52166465  0.01392639     0.07000
H187        H  0.85027588  0.52105890  0.46736211     0.06900
C188        C  0.15965430  0.72929161  0.50527628     0.03900
C189        C  0.14663118  0.71396916  0.48364778    -0.12200
C190        C  0.12457877  0.68970405  0.48725321     0.01400
C191        C  0.11539860  0.68117023  0.51290975    -0.10800
C192        C  0.12028157  0.69677149  0.03775959     0.03900
C193        C  0.14127228  0.72171606  0.03443297    -0.10200
H194        H  0.15455723  0.72047243  0.46413662     0.09500
H195        H  0.09869846  0.66232382  0.51580004     0.07000
H196        H  0.14953403  0.73379025  0.05141856     0.06900
O197        O  0.58399814  0.53505366  0.20603434    -0.74500
O198        O  0.55618409  0.53156356  0.17472957    -0.53400
C199        C  0.57787827  0.53628777  0.18204487     0.79200
O200        O  0.48870338  0.43639040  0.28295288    -0.59100
O201        O  0.49292683  0.46337420  0.31532933    -0.52100
C202        C  0.48752514  0.44168868  0.30717621     0.71200
O203        O  0.50149012  0.44930738  0.19409258    -0.73700
O204        O  0.51083525  0.48328456  0.16799319    -0.54200
C205        C  0.50571113  0.46062321  0.17154018     0.77200
O206        O  0.57661386  0.52498274  0.29550876    -0.58800
O207        O  0.54200038  0.51072778  0.32195294    -0.51900
C208        C  0.56530813  0.51834922  0.31812659     0.73800
Zr209      Zr  0.56408698  0.52666053  0.24984957     2.54700
O210        O  0.58804904  0.50651623  0.24785889    -0.79400
O211        O  0.60239602  0.56866123  0.25538485    -0.92800
Zr212      Zr  0.49928179  0.45902085  0.24022928     2.64700
O213        O  0.52429777  0.43992155  0.24161655    -0.97700
O214        O  0.46006136  0.41824837  0.23259619    -0.79800
O215        O  0.53411526  0.49597690  0.22012253    -0.83200
O216        O  0.52957095  0.48935191  0.26982872    -2.17900
O217        O  0.52448628  0.57080219  0.29800490    -0.66600
O218        O  0.51293873  0.53599084  0.32366884    -0.51100
C219        C  0.51900836  0.55898514  0.32036166     0.72200
O220        O  0.44887506  0.49686982  0.19687971    -0.59500
O221        O  0.48198468  0.50858399  0.16904438    -0.51400
C222        C  0.45913535  0.50217575  0.17386884     0.74000
O223        O  0.43907613  0.48200813  0.28451130    -0.70900
O224        O  0.46730268  0.48651274  0.31585943    -0.49500
C225        C  0.44530129  0.48073153  0.30837765     0.75400
O226        O  0.53216738  0.58286581  0.20950246    -0.66200
O227        O  0.52955790  0.55654559  0.17719887    -0.53400
C228        C  0.53356959  0.57776781  0.18531289     0.73800
Zr229      Zr  0.52487602  0.56041809  0.25167409     2.77500
O230        O  0.49903735  0.57857672  0.25340522    -0.96900
O231        O  0.56388674  0.60204841  0.25619743    -0.77800
Zr232      Zr  0.46029759  0.49256752  0.24161040     2.70100
O233        O  0.43287454  0.50886800  0.24338626    -0.79000
O234        O  0.42503619  0.44953315  0.23229225    -0.98100
Zr235      Zr  0.51669287  0.51620542  0.19698708     2.21500
Zr236      Zr  0.50747508  0.50349862  0.29439471     2.11100
O237        O  0.48983693  0.52351569  0.27135718    -2.46800
O238        O  0.49461308  0.53012995  0.22181729    -0.78800
O239        O  0.54282454  0.54109006  0.27580943    -0.71000
O240        O  0.48166448  0.47847965  0.21578011    -2.32000
O241        O  0.54737007  0.54727322  0.22607030    -2.28200
O242        O  0.47691141  0.47220271  0.26573018    -0.72800
H243        H  0.53569929  0.48123222  0.28108495     0.79200
H244        H  0.47051193  0.46718291  0.20233721     0.80300
H245        H  0.48112313  0.52828494  0.28317352     0.82600
H246        H  0.56083158  0.56162383  0.21643324     0.80200
H247        H  0.44756314  0.41815908  0.24453191     0.43200
H248        H  0.41734819  0.44206240  0.24967704     0.42200
H249        H  0.44444247  0.52739244  0.24017588     0.41800
H250        H  0.48772074  0.57033942  0.26882965     0.39800
H251        H  0.57748761  0.59949111  0.25082970     0.42900
H252        H  0.59823871  0.57629642  0.26984604     0.37700
H253        H  0.57494617  0.48805720  0.24761221     0.43800
H254        H  0.53042365  0.44205557  0.25997295     0.40200
H255        H  0.51095716  0.59641890  0.25877151     0.45100
H256        H  0.60330094  0.57838970  0.23946245     0.43900
H257        H  0.51167150  0.42143469  0.24003869     0.44000
H258        H  0.41238365  0.45179004  0.22326124     0.44400
C259        C  0.47721400  0.31986064  0.49373989     0.03900
C260        C  0.48364283  0.33529385  0.01829242    -0.12200
C261        C  0.48210452  0.35676766  0.01861100     0.01400
C262        C  0.47608857  0.36401202  0.49399527    -0.10800
C263        C  0.47413380  0.35224244  0.46989272     0.03900
C264        C  0.47490691  0.33017714  0.46997001    -0.10200
H265        H  0.48726582  0.32854243  0.03641562     0.09500
H266        H  0.47550987  0.38094661  0.49419067     0.07000
H267        H  0.47307417  0.32060181  0.45170491     0.06900
C268        C  0.32906695  0.48754647  0.49010233     0.03900
C269        C  0.34283150  0.49057437  0.01704323    -0.12200
C270        C  0.36418467  0.48874793  0.01499500     0.01400
C271        C  0.36973697  0.48087946  0.48656535    -0.10800
C272        C  0.35716834  0.48064655  0.46360962     0.03900
C273        C  0.33695654  0.48405840  0.46557642    -0.10200
H274        H  0.33783464  0.49469144  0.03582153     0.09500
H275        H  0.38569843  0.47877889  0.48509415     0.07000
H276        H  0.32710014  0.48363093  0.44788852     0.06900
C277        C  0.69956880  0.54097468  0.50126845     0.03900
C278        C  0.68818615  0.54621822  0.02173419    -0.12200
C279        C  0.66558237  0.54575129  0.02061674     0.01400
C280        C  0.65364068  0.53853832  0.49779299    -0.10800
C281        C  0.66480760  0.53659652  0.47478522     0.03900
C282        C  0.68791625  0.53810362  0.47666222    -0.10200
H283        H  0.69791928  0.54976990  0.04030398     0.09500
H284        H  0.63598137  0.53764995  0.49641220     0.07000
H285        H  0.69669809  0.53689103  0.45892969     0.06900
C286        C  0.52223516  0.68832855  0.49699955     0.03900
C287        C  0.52081757  0.67667713  0.47294011    -0.12200
C288        C  0.52183762  0.65481425  0.47238898     0.01400
C289        C  0.52475130  0.64504611  0.49617766    -0.10800
C290        C  0.53979099  0.66209331  0.02183936     0.03900
C291        C  0.53629714  0.68241842  0.02184732    -0.10200
H292        H  0.51823340  0.68419274  0.45477440     0.09500
H293        H  0.52597930  0.62849504  0.49582897     0.07000
H294        H  0.53758697  0.69179279  0.04006360     0.06900
C295        C  0.40668117  0.46315541  0.37131089     0.16700
C296        C  0.39875677  0.45717304  0.39754726    -0.32300
C297        C  0.38511759  0.46689652  0.40793894     0.21100
C298        C  0.37917620  0.48150409  0.39278497     0.03300
C299        C  0.38656125  0.48697058  0.36631117    -0.22000
C300        C  0.40055580  0.47756742  0.35599804     0.12500
S301        S  0.42642540  0.45623173  0.35640930    -0.05700
C302        C  0.42648740  0.47296697  0.32927847    -0.09200
C303        C  0.41153207  0.48287027  0.33154507    -0.25800
S304        S  0.36394240  0.49285839  0.40959195    -0.03000
C305        C  0.36581299  0.47797103  0.43748532    -0.16400
C306        C  0.37736729  0.46464281  0.43349968    -0.14400
H307        H  0.40397579  0.44637747  0.40966374     0.21000
H308        H  0.38245740  0.49885934  0.35458484     0.17000
H309        H  0.41053771  0.49509234  0.31701427     0.19500
H310        H  0.38033295  0.45414651  0.44855010     0.12900
C311        C  0.41332069  0.49986145  0.06791692     0.16700
C312        C  0.43484307  0.50462829  0.08157242    -0.32300
C313        C  0.43304404  0.50189479  0.10900394     0.21100
C314        C  0.41085407  0.49488403  0.12229527     0.03300
C315        C  0.38931815  0.49018959  0.10859863    -0.22000
C316        C  0.39107351  0.49276924  0.08108589     0.12500
S317        S  0.41162009  0.50156677  0.03464715    -0.05700
C318        C  0.38034852  0.49235832  0.03814519    -0.09200
C319        C  0.37208753  0.48848180  0.06416465    -0.25800
S320        S  0.41248683  0.49228402  0.15559446    -0.03000
C321        C  0.44337271  0.50061617  0.15153760    -0.16400
C322        C  0.45177895  0.50523922  0.12564751    -0.14400
H323        H  0.45216329  0.50999636  0.07123409     0.21000
H324        H  0.37191291  0.48455501  0.11890592     0.17000
H325        H  0.35310096  0.48229923  0.07046219     0.19500
H326        H  0.47051976  0.51055156  0.11930040     0.12900
C327        C  0.52440870  0.63077165  0.40347894     0.16700
C328        C  0.52902535  0.62806692  0.37708484    -0.32300
C329        C  0.52304215  0.60399557  0.36913729     0.21100
C330        C  0.51281481  0.58357966  0.38665555     0.03300
C331        C  0.50790806  0.58620221  0.41283007    -0.22000
C332        C  0.51401900  0.61022071  0.42077072     0.12500
S333        S  0.53129009  0.65850581  0.41757169    -0.05700
C334        C  0.52031190  0.64223296  0.44718947    -0.09200
C335        C  0.51136656  0.61654592  0.44562936    -0.25800
S336        S  0.50726813  0.55610430  0.37360599    -0.03000
C337        C  0.51876960  0.57213608  0.34404539    -0.16400
C338        C  0.52640348  0.59749442  0.34450041    -0.14400
H339        H  0.53721062  0.64405416  0.36346411     0.21000
H340        H  0.49998770  0.57027696  0.42652702     0.17000
H341        H  0.50348690  0.60305332  0.46186816     0.19500
H342        H  0.53395492  0.61041825  0.32776147     0.12900
C343        C  0.55181493  0.63027236  0.08047078     0.16700
C344        C  0.55588070  0.61450344  0.09637788    -0.32300
C345        C  0.54963289  0.61262237  0.12305791     0.21100
C346        C  0.54049140  0.62639407  0.13384754     0.03300
C347        C  0.53691815  0.64267454  0.11793242    -0.22000
C348        C  0.54242421  0.64392147  0.09092245     0.12500
S349        S  0.55573071  0.63287897  0.04722810    -0.05700
C350        C  0.54407822  0.65231091  0.04685897    -0.09200
C351        C  0.53803227  0.65668356  0.07178993    -0.25800
S352        S  0.53195141  0.61941058  0.16636142    -0.03000
C353        C  0.53996808  0.59711127  0.16479854    -0.16400
C354        C  0.54959294  0.59607580  0.14070064    -0.14400
H355        H  0.56245987  0.60320379  0.08807153     0.21000
H356        H  0.52907763  0.65294569  0.12596992     0.17000
H357        H  0.52975006  0.66760287  0.07585109     0.19500
H358        H  0.55494148  0.58277555  0.13586945     0.12900
C359        C  0.64027296  0.53437562  0.40430189     0.16700
C360        C  0.63726263  0.53822624  0.37757329    -0.32300
C361        C  0.61245496  0.52811243  0.36834561     0.21100
C362        C  0.59169085  0.51451912  0.38500011     0.03300
C363        C  0.59467689  0.51046459  0.41151356    -0.22000
C364        C  0.61938594  0.52088519  0.42076767     0.12500
S365        S  0.66867695  0.54601322  0.41983822    -0.05700
C366        C  0.65219007  0.53302659  0.44894876    -0.09200
C367        C  0.62603103  0.51994603  0.44622081    -0.25800
S368        S  0.56328546  0.50444317  0.37069092    -0.03000
C369        C  0.57929078  0.51878769  0.34175922    -0.16400
C370        C  0.60543856  0.53052633  0.34331394    -0.14400
H371        H  0.65353512  0.54903112  0.36469618     0.21000
H372        H  0.57843277  0.50008834  0.42452620     0.17000
H373        H  0.61246034  0.51037522  0.46208361     0.19500
H374        H  0.61857139  0.54066298  0.32724646     0.12900
C375        C  0.62633853  0.54456564  0.13051458     0.16700
C376        C  0.64353757  0.54212480  0.11540380    -0.32300
C377        C  0.64479872  0.54728311  0.08830129     0.21100
C378        C  0.63013090  0.55519859  0.07684935     0.03300
C379        C  0.61321277  0.55802951  0.09198794    -0.22000
C380        C  0.61142934  0.55215507  0.11892895     0.12500
S381        S  0.62004563  0.53664807  0.16316813    -0.05700
C382        C  0.59655179  0.54288152  0.16094226    -0.09200
C383        C  0.59438821  0.55131607  0.13630100    -0.25800
S384        S  0.63335786  0.55902074  0.04351346    -0.03000
C385        C  0.65445772  0.54937488  0.04473003    -0.16400
C386        C  0.65880698  0.54398992  0.07007863    -0.14400
H387        H  0.65470233  0.53550275  0.12419224     0.21000
H388        H  0.60121073  0.56354040  0.08298057     0.17000
H389        H  0.58027505  0.55550392  0.13106249     0.19500
H390        H  0.67066699  0.53688800  0.07499732     0.12900
C391        C  0.47919042  0.39264076  0.35871291     0.16700
C392        C  0.48226954  0.37599536  0.37456178    -0.32300
C393        C  0.47568690  0.37388242  0.40131780     0.21100
C394        C  0.46599939  0.38732773  0.41163124     0.03300
C395        C  0.46257505  0.40363411  0.39578493    -0.22000
C396        C  0.46966680  0.40616167  0.36927335     0.12500
S397        S  0.48852583  0.40005214  0.32648056    -0.05700
C398        C  0.48020662  0.42209868  0.32765793    -0.09200
C399        C  0.47005190  0.42291958  0.35154823    -0.25800
S400        S  0.46043235  0.38333673  0.44462593    -0.03000
C401        C  0.47153696  0.36340739  0.44498468    -0.16400
C402        C  0.47881860  0.36003716  0.42030623    -0.14400
H403        H  0.49030758  0.36587377  0.36662253     0.21000
H404        H  0.45559287  0.41462241  0.40399295     0.17000
H405        H  0.46455758  0.43614641  0.35616214     0.19500
H406        H  0.48690445  0.34888511  0.41647849     0.12900
C407        C  0.50484488  0.43318991  0.10425978     0.16700
C408        C  0.50605858  0.42911835  0.07744627    -0.32300
C409        C  0.49699927  0.40423389  0.06960681     0.21100
C410        C  0.48740958  0.38428205  0.08761460     0.03300
C411        C  0.48636733  0.38838858  0.11452153    -0.22000
C412        C  0.49522697  0.41328119  0.12236835     0.12500
S413        S  0.51391053  0.46179958  0.11744814    -0.05700
C414        C  0.50451974  0.44682942  0.14776995    -0.09200
C415        C  0.49513150  0.42103292  0.14747047    -0.25800
S416        S  0.47718019  0.35548634  0.07391001    -0.03000
C417        C  0.48564075  0.37046562  0.04348482    -0.16400
C418        C  0.49611024  0.39648859  0.04437077    -0.14400
H419        H  0.51341307  0.44461181  0.06325893     0.21000
H420        H  0.47872339  0.37284026  0.12865975     0.17000
H421        H  0.48810353  0.40853963  0.16456659     0.19500
H422        H  0.50297842  0.40923979  0.02748321     0.12900
C423        C  0.76148715  0.54722612  0.01336103     0.16700
C424        C  0.78414221  0.55182357  0.02420160    -0.32300
C425        C  0.79581397  0.54080008  0.01187415     0.21100
C426        C  0.78554246  0.52611413  0.98957512     0.03300
C427        C  0.76291486  0.52156833  0.97870014    -0.22000
C428        C  0.75111296  0.53239169  0.99118871     0.12500
S429        S  0.74404727  0.55818839  0.02588507    -0.05700
C430        C  0.72353364  0.54156137  0.50345208    -0.09200
C431        C  0.73056879  0.52959151  0.48584558    -0.25800
S432        S  0.80257212  0.51447575  0.97754754    -0.03000
C433        C  0.82461270  0.52755728  0.50566905    -0.16400
C434        C  0.81768445  0.54268074  0.01972148    -0.14400
H435        H  0.79216826  0.56326045  0.04164832     0.21000
H436        H  0.75475723  0.50992867  0.96140105     0.17000
H437        H  0.71966085  0.51890462  0.46889375     0.19500
H438        H  0.82878854  0.55345026  0.03655598     0.12900
C439        C  0.27631144  0.50127371  0.48346736     0.16700
C440        C  0.25948815  0.50803918  0.47486019    -0.32300
C441        C  0.23995025  0.50339837  0.49207144     0.21100
C442        C  0.23735890  0.49258595  0.51675753     0.03300
C443        C  0.25424828  0.48592231  0.52541078    -0.22000
C444        C  0.27376167  0.49053192  0.50818648     0.12500
S445        S  0.30087735  0.50487424  0.46534571    -0.05700
C446        C  0.30795694  0.49173618  0.49133890    -0.09200
C447        C  0.29188412  0.48511889  0.51288417    -0.25800
S448        S  0.21255549  0.48862376  0.53471961    -0.03000
C449        C  0.20544486  0.50175921  0.50873266    -0.16400
C450        C  0.22172836  0.50867479  0.48731801    -0.14400
H451        H  0.26147867  0.51644943  0.45555263     0.21000
H452        H  0.25223649  0.47747412  0.54470176     0.17000
H453        H  0.29328615  0.47800282  0.03590358     0.19500
H454        H  0.22071572  0.51761542  0.46941653     0.12900
C455        C  0.94523950  0.53560254  0.12438092     0.16700
C456        C  0.94314106  0.54017456  0.09788921    -0.32300
C457        C  0.91934982  0.53358739  0.08881252     0.21100
C458        C  0.89830753  0.52270366  0.10518938     0.03300
C459        C  0.90045552  0.51828857  0.13204388    -0.22000
C460        C  0.92453371  0.52512863  0.14128996     0.12500
S461        S  0.97252060  0.54176126  0.13835076    -0.05700
C462        C  0.95631229  0.53038283  0.16771275    -0.09200
C463        C  0.93087145  0.52229383  0.16653224    -0.25800
S464        S  0.87101134  0.51549688  0.08937921    -0.03000
C465        C  0.88837909  0.52722871  0.06049591    -0.16400
C466        C  0.91393366  0.53652937  0.06356983    -0.14400
H467        H  0.95939133  0.54835308  0.08479621     0.21000
H468        H  0.88414225  0.50979364  0.14504464     0.17000
H469        H  0.91771618  0.51423401  0.18292982     0.19500
H470        H  0.92808482  0.54504461  0.04808489     0.12900
C471        C  0.92139747  0.52127108  0.38014448     0.16700
C472        C  0.90569136  0.52623699  0.39484005    -0.32300
C473        C  0.90350338  0.52099640  0.42198463     0.21100
C474        C  0.91607904  0.51092077  0.43391105     0.03300
C475        C  0.93176786  0.50592526  0.41924866    -0.22000
C476        C  0.93428733  0.51156390  0.39218992     0.12500
S477        S  0.92747908  0.52737819  0.34719164    -0.05700
C478        C  0.94816324  0.51740617  0.34976791    -0.09200
C479        C  0.94968184  0.50933261  0.37489299    -0.25800
S480        S  0.91129300  0.50635586  0.46706849    -0.03000
C481        C  0.89222815  0.51841702  0.46512274    -0.16400
C482        C  0.88987958  0.52538575  0.43970208    -0.14400
H483        H  0.89595561  0.53425723  0.38560163     0.21000
H484        H  0.94194680  0.49843738  0.42860719     0.17000
H485        H  0.96186586  0.50271957  0.38035491     0.19500
H486        H  0.87934819  0.53387681  0.43436772     0.12900
C487        C  0.97580218  0.43567057  0.12200026     0.16700
C488        C  0.97401583  0.43057602  0.09502571    -0.32300
C489        C  0.95278380  0.40767496  0.08632321     0.21100
C490        C  0.93425842  0.39049632  0.10369565     0.03300
C491        C  0.93624450  0.39536816  0.13082229    -0.22000
C492        C  0.95743777  0.41840173  0.13955617     0.12500
S493        S  0.99897039  0.46333239  0.13590240    -0.05700
C494        C  0.98387215  0.45170391  0.16584840    -0.09200
C495        C  0.96216773  0.42735469  0.16491000    -0.25800
S496        S  0.90963344  0.36430270  0.08890188    -0.03000
C497        C  0.92434531  0.37647948  0.05870405    -0.16400
C498        C  0.94739054  0.39979752  0.06072717    -0.14400
H499        H  0.98826222  0.44418088  0.08131576     0.21000
H500        H  0.92165630  0.38205606  0.14442606     0.17000
H501        H  0.94980834  0.41735195  0.18155016     0.19500
H502        H  0.95989406  0.41075816  0.04456227     0.12900
C503        C  0.97846358  0.42959842  0.39322000     0.20300
C504        C  0.97811157  0.42477627  0.42019902    -0.32300
C505        C  0.95767699  0.40177327  0.43009500     0.21100
C506        C  0.93868815  0.38412703  0.41376543     0.03300
C507        C  0.93922896  0.38876311  0.38657243    -0.22000
C508        C  0.95948343  0.41206197  0.37669101     0.12500
S509        S  0.00030132  0.45746060  0.37837850    -0.05700
C510        C  0.98358950  0.44577713  0.34948651    -0.09200
C511        C  0.96248794  0.42115638  0.35127056    -0.25800
S512        S  0.91499490  0.35801243  0.42999243    -0.03000
C513        C  0.93061666  0.37105949  0.45937203    -0.16400
C514        C  0.95333038  0.39443678  0.45605545    -0.14400
H515        H  0.99269565  0.43877417  0.43307706     0.21000
H516        H  0.92412831  0.37519658  0.37386359     0.17000
H517        H  0.94931530  0.41116279  0.33539634     0.19500
H518        H  0.96608181  0.40589699  0.47163350     0.12900
C519        C  0.10980828  0.54041312  0.12681037     0.16700
C520        C  0.11630989  0.54300773  0.10019453    -0.32300
C521        C  0.12951072  0.53217272  0.09169903     0.21100
C522        C  0.13650242  0.51974052  0.10892742     0.03300
C523        C  0.13055156  0.51768906  0.13584004    -0.22000
C524        C  0.11683120  0.52814027  0.14430764     0.12500
S525        S  0.09121176  0.54963459  0.13997594    -0.05700
C526        C  0.09253851  0.53660947  0.16945564    -0.09200
C527        C  0.10727555  0.52627423  0.16910099    -0.25800
S528        S  0.15118882  0.50670416  0.09403030    -0.03000
C529        C  0.14743660  0.51783991  0.06420151    -0.16400
C530        C  0.13591327  0.53139940  0.06626405    -0.14400
H531        H  0.11040855  0.55217499  0.08647300     0.21000
H532        H  0.13555095  0.50761050  0.14935695     0.17000
H533        H  0.10953123  0.51655510  0.18557987     0.19500
H534        H  0.13213086  0.54018448  0.05001753     0.12900
C535        C  0.10894699  0.51098517  0.43408459     0.16700
C536        C  0.08958423  0.51057157  0.41988955    -0.32300
C537        C  0.09323886  0.51565846  0.39279260     0.21100
C538        C  0.11508944  0.52068962  0.38020240     0.03300
C539        C  0.13456638  0.52114835  0.39449456    -0.22000
C540        C  0.13099099  0.51625545  0.42177900     0.12500
S541        S  0.10811573  0.50580087  0.46711778    -0.05700
C542        C  0.13810146  0.51106704  0.46490667    -0.09200
C543        C  0.14780274  0.51630559  0.43932019    -0.25800
S544        S  0.11557833  0.52631716  0.34703498    -0.03000
C545        C  0.08623116  0.52229590  0.35037598    -0.16400
C546        C  0.07671365  0.51656959  0.37589446    -0.14400
H547        H  0.07246099  0.50665648  0.42961020     0.21000
H548        H  0.15178531  0.52529625  0.38482246     0.17000
H549        H  0.16637016  0.52055919  0.43381312     0.19500
H550        H  0.05858551  0.51325993  0.38184080     0.12900
C551        C  0.06176399  0.62968648  0.13101932     0.16700
C552        C  0.06083803  0.63627250  0.10494996    -0.32300
C553        C  0.08253949  0.65780884  0.09455239     0.21100
C554        C  0.10409555  0.67260844  0.10953656     0.03300
C555        C  0.10478842  0.66644878  0.13603110    -0.22000
C556        C  0.08317064  0.64445302  0.14632356     0.12500
S557        S  0.03856047  0.60232700  0.14560938    -0.05700
C558        C  0.05785221  0.61057420  0.17261591    -0.09200
C559        C  0.08083394  0.63370604  0.17067136    -0.25800
S560        S  0.12907671  0.69669042  0.09225888    -0.03000
C561        C  0.11032475  0.68628088  0.06444197    -0.16400
C562        C  0.08582126  0.66570981  0.06894892    -0.14400
H563        H  0.04434437  0.62436921  0.09287681     0.21000
H564        H  0.12176674  0.67758114  0.14768810     0.17000
H565        H  0.09557137  0.64128101  0.18544947     0.19500
H566        H  0.07119235  0.65638513  0.05419205     0.12900
C567        C  0.08568004  0.63957866  0.38093140     0.16700
C568        C  0.10003423  0.66244781  0.39456058    -0.32300
C569        C  0.10133377  0.66093684  0.42199919     0.21100
C570        C  0.08898296  0.63774797  0.43523972     0.03300
C571        C  0.07446294  0.61491538  0.42167844    -0.22000
C572        C  0.07310977  0.61642653  0.39429507     0.12500
S573        S  0.08226069  0.63720073  0.34756797    -0.05700
C574        C  0.06361084  0.60465418  0.35174325    -0.09200
C575        C  0.06029741  0.59633893  0.37769212    -0.25800
S576        S  0.09332303  0.63989228  0.46837259    -0.03000
C577        C  0.11193345  0.67256594  0.46461630    -0.16400
C578        C  0.11441111  0.68097996  0.43870064    -0.14400
H579        H  0.10990180  0.68058419  0.38423208     0.21000
H580        H  0.06479103  0.59676703  0.43199246     0.17000
H581        H  0.04943585  0.57660400  0.38407088     0.19500
H582        H  0.12501616  0.70066787  0.43225227     0.12900
C583        C  0.78658949  0.22412605  0.48501539     0.16700
C584        C  0.80743891  0.24703931  0.47566154    -0.32300
C585        C  0.82639050  0.26242008  0.49369114     0.21100
C586        C  0.82490357  0.25537444  0.51987624     0.03300
C587        C  0.80399600  0.23228903  0.52929031    -0.22000
C588        C  0.78486647  0.21691933  0.51120365     0.12500
S589        S  0.76138851  0.20337063  0.46625787    -0.05700
C590        C  0.74796459  0.18456860  0.49399272    -0.09200
C591        C  0.76276961  0.19415912  0.51648560    -0.25800
S592        S  0.85082322  0.27667129  0.03367697    -0.03000
C593        C  0.86245624  0.29624254  0.51050417    -0.16400
C594        C  0.84760499  0.28564764  0.48824118    -0.14400
H595        H  0.80870265  0.25279004  0.45524340     0.21000
H596        H  0.80253850  0.22672324  0.54979399     0.17000
H597        H  0.76701624  0.17810093  0.02705047     0.19500
H598        H  0.85144047  0.29461460  0.46901538     0.12900
C599        C  0.48608664  0.26494628  0.00511694     0.16700
C600        C  0.48475548  0.24331188  0.01497144    -0.32300
C601        C  0.49822033  0.23487595  0.00149666     0.21100
C602        C  0.51241460  0.24739017  0.97919166     0.03300
C603        C  0.51367755  0.26902599  0.96920213    -0.22000
C604        C  0.50011373  0.27743564  0.98267593     0.12500
S605        S  0.47173285  0.27850283  0.01927650    -0.05700
C606        C  0.47842119  0.29686830  0.49400623    -0.09200
C607        C  0.49090244  0.29189473  0.47490082    -0.25800
S608        S  0.51297117  0.22320088  0.46271076    -0.03000
C609        C  0.50067867  0.20121480  0.48831177    -0.16400
C610        C  0.49885521  0.21395762  0.00790794    -0.14400
H611        H  0.47375537  0.23351718  0.03245470     0.21000
H612        H  0.51235873  0.26909892  0.44869604     0.17000
H613        H  0.50044286  0.30385836  0.45783137     0.19500
H614        H  0.48835670  0.20129837  0.02422569     0.12900
C615        C  0.63953334  0.08990785  0.06774545     0.16700
C616        C  0.61689024  0.07591674  0.08187697    -0.32300
C617        C  0.61856209  0.07315199  0.10893271     0.21100
C618        C  0.64171139  0.08389145  0.12158480     0.03300
C619        C  0.66452114  0.09786070  0.10732032    -0.22000
C620        C  0.66285003  0.10059277  0.08005005     0.12500
S621        S  0.64107211  0.09491101  0.03479404    -0.05700
C622        C  0.67365764  0.11119956  0.03707534    -0.09200
C623        C  0.68265462  0.11308954  0.06249790    -0.25800
S624        S  0.63926727  0.07900325  0.15491747    -0.03000
C625        C  0.60676386  0.06247383  0.15147584    -0.16400
C626        C  0.59854152  0.06068643  0.12584292    -0.14400
H627        H  0.59871364  0.06758073  0.07218733     0.21000
H628        H  0.68268728  0.10628103  0.11702170     0.17000
H629        H  0.70246090  0.12241240  0.06774121     0.19500
H630        H  0.57889189  0.05139082  0.11991609     0.12900
C631        C  0.64394114  0.09385097  0.35960278     0.16700
C632        C  0.66455786  0.11247189  0.37429119    -0.32300
C633        C  0.66575735  0.10687638  0.40087345     0.21100
C634        C  0.64782071  0.08345568  0.41187146     0.03300
C635        C  0.62741971  0.06488076  0.39723531    -0.22000
C636        C  0.62564764  0.07084155  0.37112564     0.12500
S637        S  0.63777251  0.09739677  0.32765819    -0.05700
C638        C  0.60986496  0.06803337  0.33049053    -0.09200
C639        C  0.60598952  0.05604787  0.35461320    -0.25800
S640        S  0.65131719  0.08062001  0.44451420    -0.03000
C641        C  0.67652307  0.11192535  0.44410889    -0.16400
C642        C  0.68249619  0.12332773  0.41928258    -0.14400
H643        H  0.67839733  0.13083450  0.36570927     0.21000
H644        H  0.61291442  0.04698221  0.40617020     0.17000
H645        H  0.58945422  0.03762604  0.35990143     0.19500
H646        H  0.69702977  0.14304172  0.41517250     0.12900
C647        C  0.50571559  0.10707032  0.07051102     0.16700
C648        C  0.50413505  0.08694135  0.08459456    -0.32300
C649        C  0.51162777  0.09108064  0.11094856     0.21100
C650        C  0.51948780  0.11392752  0.12310856     0.03300
C651        C  0.52094843  0.13410325  0.10898285    -0.22000
C652        C  0.51422501  0.13023903  0.08226618     0.12500
S653        S  0.49981238  0.10634335  0.03782636    -0.05700
C654        C  0.51004244  0.13808587  0.03934272    -0.09200
C655        C  0.51652672  0.14812200  0.06450353    -0.25800
S656        S  0.52771450  0.11492906  0.15537349    -0.03000
C657        C  0.52109904  0.08450355  0.15209997    -0.16400
C658        C  0.51277933  0.07427293  0.12734461    -0.14400
H659        H  0.49812198  0.06909301  0.07516426     0.21000
H660        H  0.52773834  0.15221806  0.11818855     0.17000
H661        H  0.52406704  0.16778880  0.06927633     0.19500
H662        H  0.50781419  0.05549978  0.12163451     0.12900
C663        C  0.53471458  0.12315300  0.41403944     0.16700
C664        C  0.54058850  0.10789088  0.40002968    -0.32300
C665        C  0.53636357  0.10593154  0.37287407     0.21100
C666        C  0.52760342  0.11932232  0.35995342     0.03300
C667        C  0.52209754  0.13497625  0.37398059    -0.22000
C668        C  0.52544475  0.13619104  0.40140030     0.12500
S669        S  0.53589743  0.12556995  0.44735487    -0.05700
C670        C  0.52281527  0.14368445  0.44472453    -0.09200
C671        C  0.51875133  0.14818394  0.41886239    -0.25800
S672        S  0.52262805  0.11325459  0.32701670    -0.03000
C673        C  0.53164590  0.09184333  0.33104322    -0.16400
C674        C  0.53872301  0.09019113  0.35644151    -0.14400
H675        H  0.54708217  0.09708782  0.41004626     0.21000
H676        H  0.51451943  0.14487480  0.36413486     0.17000
H677        H  0.51004126  0.15840693  0.41305075     0.19500
H678        H  0.54463211  0.07758679  0.36272691     0.12900
C679        C  0.25769702  0.82569605  0.01789938     0.16700
C680        C  0.23830038  0.80335167  0.03000984    -0.32300
C681        C  0.21543791  0.78890704  0.01644777     0.21100
C682        C  0.21192807  0.79628038  0.99184563     0.03300
C683        C  0.23144473  0.81873353  0.97963020    -0.22000
C684        C  0.25447420  0.83324129  0.99323661     0.12500
S685        S  0.28651465  0.84576689  0.03162132    -0.05700
C686        C  0.30209052  0.86233324  0.49698353    -0.09200
C687        C  0.28311868  0.85311532  0.47821906    -0.25800
S688        S  0.19047854  0.77272745  0.47341464    -0.03000
C689        C  0.18395899  0.75385045  0.50112717    -0.16400
C690        C  0.19470761  0.76633379  0.02489482    -0.14400
H691        H  0.24094768  0.79744231  0.04920110     0.21000
H692        H  0.23589711  0.82175267  0.45450927     0.17000
H693        H  0.28378180  0.86337402  0.46061384     0.19500
H694        H  0.19396968  0.75695457  0.04322618     0.12900
C695        C  0.42937060  0.98521891  0.11194146     0.16700
C696        C  0.42334588  0.98495778  0.08539936    -0.32300
C697        C  0.39902135  0.96584574  0.07733858     0.21100
C698        C  0.38113574  0.94838081  0.09504587     0.03300
C699        C  0.38676051  0.94942139  0.12194244    -0.22000
C700        C  0.41147656  0.96796662  0.12988894     0.12500
S701        S  0.45908631  0.00387901  0.12429346    -0.05700
C702        C  0.44754000  0.98818093  0.15401356    -0.09200
C703        C  0.42172420  0.96995041  0.15436719    -0.25800
S704        S  0.35401681  0.92475242  0.08063392    -0.03000
C705        C  0.36713165  0.93811179  0.05017402    -0.16400
C706        C  0.39098718  0.96048266  0.05183894    -0.14400
H707        H  0.43757724  0.99795178  0.07130524     0.21000
H708        H  0.37305993  0.93534209  0.13571840     0.17000
H709        H  0.41143752  0.95771274  0.17103991     0.19500
H710        H  0.40273812  0.97186458  0.03541375     0.12900
C711        C  0.41558715  0.95026955  0.42024319     0.16700
C712        C  0.43818968  0.96323669  0.40572180    -0.32300
C713        C  0.43638368  0.96350790  0.37825098     0.21100
C714        C  0.41314837  0.95128577  0.36561664     0.03300
C715        C  0.39044819  0.93814971  0.38019535    -0.22000
C716        C  0.39226472  0.93800365  0.40778937     0.12500
S717        S  0.41390444  0.94834835  0.45374980    -0.05700
C718        C  0.38126622  0.93078933  0.45126511    -0.09200
C719        C  0.37249326  0.92671320  0.42547224    -0.25800
S720        S  0.41535453  0.95428220  0.33199403    -0.03000
C721        C  0.44794151  0.97235072  0.33515613    -0.16400
C722        C  0.45629531  0.97553191  0.36097319    -0.14400
H723        H  0.45642993  0.97291215  0.41543475     0.21000
H724        H  0.37220849  0.92864688  0.37049832     0.17000
H725        H  0.35271176  0.91643561  0.41989525     0.19500
H726        H  0.47601016  0.98624157  0.36687447     0.12900
C727        C  0.51541806  0.74481484  0.50961530     0.16700
C728        C  0.51108690  0.76262537  0.52038627    -0.32300
C729        C  0.51922330  0.78492375  0.50581396     0.21100
C730        C  0.53107543  0.78926813  0.48161169     0.03300
C731        C  0.53523287  0.77135704  0.47071200    -0.22000
C732        C  0.52712897  0.74905671  0.48530157     0.12500
S733        S  0.50779274  0.71709335  0.52467157    -0.05700
C734        C  0.52061597  0.71103524  0.49797668    -0.09200
C735        C  0.52999552  0.72965091  0.47838990    -0.25800
S736        S  0.53964478  0.81754899  0.46721250    -0.03000
C737        C  0.52703270  0.82380593  0.49406293    -0.16400
C738        C  0.51676056  0.80449116  0.51303346    -0.14400
H739        H  0.50198009  0.75934664  0.53940174     0.21000
H740        H  0.54452548  0.77473522  0.45179573     0.17000
H741        H  0.53915444  0.72944084  0.46044932     0.19500
H742        H  0.50752171  0.80428194  0.53105600     0.12900
C743        C  0.50960860  0.90807028  0.07642703     0.16700
C744        C  0.50552636  0.92468828  0.09023173    -0.32300
C745        C  0.51490518  0.93083720  0.11580981     0.21100
C746        C  0.52709595  0.92026104  0.12761411     0.03300
C747        C  0.53122554  0.90351523  0.11369052    -0.22000
C748        C  0.52250236  0.89797563  0.08760247     0.12500
S749        S  0.50142909  0.90035836  0.04456146    -0.05700
C750        C  0.51673784  0.88431931  0.04529359    -0.09200
C751        C  0.52651133  0.88404965  0.06981596    -0.25800
S752        S  0.53673730  0.93023909  0.15911578    -0.03000
C753        C  0.52481065  0.94931117  0.15579060    -0.16400
C754        C  0.51377736  0.94765032  0.13168960    -0.14400
H755        H  0.49609493  0.93308929  0.08110652     0.21000
H756        H  0.54135002  0.89573768  0.12252670     0.17000
H757        H  0.53734164  0.87561596  0.07396830     0.19500
H758        H  0.50520583  0.95809298  0.12612143     0.12900
C759        C  0.53403581  0.92766820  0.36539872     0.16700
C760        C  0.53254254  0.90770642  0.37987692    -0.32300
C761        C  0.53524516  0.91032809  0.40728288     0.21100
C762        C  0.53983688  0.93207726  0.41957679     0.03300
C763        C  0.54166206  0.95214148  0.40513401    -0.22000
C764        C  0.53834319  0.94925060  0.37789005     0.12500
S765        S  0.52963456  0.92758368  0.33219960    -0.05700
C766        C  0.53311917  0.95668764  0.33539320    -0.09200
C767        C  0.53789083  0.96596691  0.36081149    -0.25800
S768        S  0.54125816  0.93115751  0.45291363    -0.03000
C769        C  0.53498129  0.90071071  0.45068389    -0.16400
C770        C  0.53255527  0.89231054  0.42495455    -0.14400
H771        H  0.52868588  0.89058944  0.37030631     0.21000
H772        H  0.54472534  0.96892333  0.41480243     0.17000
H773        H  0.54051425  0.98385698  0.36658863     0.19500
H774        H  0.52788709  0.87363981  0.41929356     0.12900
C775        C  0.52836885  0.84594572  0.99589309     0.03900
C776        C  0.52143968  0.85474053  0.52001928    -0.12200
C777        C  0.52017534  0.87637880  0.52120815     0.01400
C778        C  0.52494458  0.89117905  0.49851323    -0.10800
C779        C  0.52797789  0.88031050  0.97295044     0.03900
C780        C  0.53021058  0.85922378  0.97249140    -0.10200
H781        H  0.51800472  0.84370290  0.53782674     0.09500
H782        H  0.52407145  0.90792030  0.49977146     0.07000
H783        H  0.53350241  0.85327361  0.95387723     0.06900
C784        C  0.31970327  0.88916275  0.00185890     0.03900
C785        C  0.33398971  0.89682508  0.97836862    -0.12200
C786        C  0.35909444  0.91826352  0.97800921     0.01400
C787        C  0.36929972  0.93210020  0.00132912    -0.10800
C788        C  0.35747143  0.92399388  0.52181526     0.03900
C789        C  0.33355857  0.90150551  0.51981901    -0.10200
H790        H  0.32608252  0.88531441  0.96095997     0.09500
H791        H  0.38859004  0.94824571  0.00107624     0.07000
H792        H  0.32129135  0.89381773  0.53691570     0.06900
O793        O  0.45102013  0.97367647  0.79243542    -0.74500
O794        O  0.48415990  0.99404167  0.82101612    -0.53400
C795        C  0.46044663  0.97885784  0.81579561     0.79200
O796        O  0.52335145  0.95951692  0.70024656    -0.59100
O797        O  0.51697073  0.98288544  0.67025176    -0.52100
C798        C  0.52007781  0.96480607  0.67663365     0.71200
O799        O  0.52364031  0.95831223  0.78892622    -0.73700
O800        O  0.52520275  0.98608543  0.81878776    -0.54200
C801        C  0.52501003  0.96611538  0.81257703     0.77200
O802        O  0.44719186  0.98083827  0.70370594    -0.58800
O803        O  0.47892519  0.99776140  0.67300461    -0.51900
C804        C  0.45564005  0.98685046  0.67988126     0.73800
Zr805      Zr  0.46669652  0.98656808  0.74722324     2.54700
O806        O  0.43524500  0.94113714  0.74425007    -0.79400
O807        O  0.43438242  0.99643808  0.75256732    -0.92800
Zr808      Zr  0.52220060  0.97323273  0.74469175     2.64700
O809        O  0.48925524  0.92806207  0.74463491    -0.97700
O810        O  0.55575392  0.96477124  0.74398461    -0.79800
O811        O  0.49516752  0.97979021  0.77112390    -0.83200
O812        O  0.49291260  0.97875132  0.72072532    -2.17900
O813        O  0.51419580  0.07427656  0.70030961    -0.66600
O814        O  0.51507542  0.04773534  0.67053519    -0.51100
C815        C  0.51343700  0.06667623  0.67668146     0.72200
O816        O  0.59300167  0.06186819  0.78578490    -0.59500
O817        O  0.56244094  0.04051247  0.81731585    -0.51400
C818        C  0.58553880  0.05597938  0.80989105     0.74000
O819        O  0.58946325  0.05726007  0.69679734    -0.70900
O820        O  0.55623204  0.03831359  0.66822980    -0.49500
C821        C  0.58001215  0.05212752  0.67347019     0.75400
O822        O  0.52138566  0.07751344  0.78833130    -0.66200
O823        O  0.52447641  0.05215405  0.81867453    -0.53400
C824        C  0.52377902  0.07165933  0.81197549     0.73800
Zr825      Zr  0.51841439  0.06113759  0.74448022     2.77500
O826        O  0.55055292  0.10642862  0.74062886    -0.96900
O827        O  0.48402053  0.06817930  0.74794299    -0.77800
Zr828      Zr  0.57386598  0.04794083  0.74220062     2.70100
O829        O  0.60665117  0.09312275  0.73951463    -0.79000
O830        O  0.60488785  0.03602602  0.74167764    -0.98100
Zr831      Zr  0.52236328  0.01788388  0.79450317     2.21500
Zr832      Zr  0.51857203  0.01649876  0.69520725     2.11100
O833        O  0.54568164  0.05490059  0.71815444    -2.46800
O834        O  0.54736422  0.05531500  0.76850116    -0.78800
O835        O  0.49144810  0.02354635  0.72078562    -0.71000
O836        O  0.54954113  0.01084277  0.76869225    -2.32000
O837        O  0.49320150  0.02435415  0.77141381    -2.28200
O838        O  0.54762931  0.01010817  0.71817924    -0.72800
H839        H  0.48244986  0.96429702  0.70964379     0.79200
H840        H  0.56073458  0.00851432  0.77969687     0.80300
H841        H  0.55506504  0.06914993  0.70610167     0.82600
H842        H  0.48317589  0.02714316  0.78358481     0.80200
H843        H  0.56891672  0.97749611  0.75593458     0.43200
H844        H  0.59787732  0.02173297  0.72918454     0.42200
H845        H  0.59821459  0.10095691  0.73109416     0.41800
H846        H  0.54217299  0.11487723  0.74737491     0.39800
H847        H  0.46839183  0.05095532  0.74705339     0.42900
H848        H  0.43841141  0.00563881  0.76941374     0.37700
H849        H  0.44352603  0.93301563  0.75234571     0.43800
H850        H  0.49802599  0.91955986  0.75019985     0.40200
H851        H  0.56327556  0.10958599  0.75417915     0.45100
H852        H  0.41855544  0.97979300  0.75622263     0.43900
H853        H  0.47820657  0.92563992  0.75975639     0.44000
H854        H  0.61978095  0.05029310  0.73239445     0.44400
C855        C  0.51653748  0.18868571  0.99108698     0.03900
C856        C  0.50026875  0.16602102  0.51379704    -0.12200
C857        C  0.50318687  0.14533318  0.51497365     0.01400
C858        C  0.51045297  0.13838065  0.49222334    -0.10800
C859        C  0.52449281  0.15960495  0.96811572     0.03900
C860        C  0.52248613  0.18082625  0.96789239    -0.10200
H861        H  0.49498912  0.17147221  0.53152024     0.09500
H862        H  0.51282286  0.12252733  0.49326636     0.07000
H863        H  0.52543443  0.19107518  0.94957761     0.06900
C864        C  0.72685572  0.15528557  0.98967606     0.03900
C865        C  0.71607944  0.14281702  0.96570855    -0.12200
C866        C  0.69247905  0.11943214  0.96540058     0.01400
C867        C  0.67999066  0.10886504  0.98940947    -0.10800
C868        C  0.68262545  0.13010784  0.51567791     0.03900
C869        C  0.70729039  0.15181530  0.51650418    -0.10200
H870        H  0.72607854  0.15137929  0.94742439     0.09500
H871        H  0.66175227  0.09108404  0.98963794     0.07000
H872        H  0.71421009  0.16212831  0.53473184     0.06900
O873        O  0.08313543  0.52649521  0.80518150    -0.74500
O874        O  0.05517274  0.52558634  0.83450502    -0.53400
C875        C  0.07491760  0.52527551  0.82876656     0.79200
O876        O  0.06351863  0.60257098  0.71773957    -0.59100
O877        O  0.04515247  0.57088982  0.68744590    -0.52100
C878        C  0.05781988  0.59437822  0.69396337     0.71200
O879        O  0.06279466  0.59854847  0.80701590    -0.73700
O880        O  0.04410309  0.56482781  0.83566962    -0.54200
C881        C  0.05735705  0.58877752  0.83039445     0.77200
O882        O  0.08558933  0.53031387  0.71575239    -0.58800
O883        O  0.06015821  0.53416086  0.68654760    -0.51900
C884        C  0.07946157  0.53305964  0.69229997     0.73800
Zr885      Zr  0.06959715  0.52863516  0.76027119     2.54700
O886        O  0.11429727  0.56259546  0.76135552    -0.79400
O887        O  0.07817541  0.49510860  0.75866805    -0.92800
Zr888      Zr  0.05420504  0.58286707  0.76184762     2.64700
O889        O  0.09998094  0.61292955  0.76258235    -0.97700
O890        O  0.04531105  0.61613039  0.76393790    -0.79800
O891        O  0.06179105  0.55506321  0.78630482    -0.83200
O892        O  0.06310674  0.55728650  0.73605397    -2.17900
O893        O  0.98527210  0.45928040  0.71210527    -0.66600
O894        O  0.00547338  0.49374947  0.68447414    -0.51100
C895        C  0.99130376  0.46971764  0.68889847     0.72200
O896        O  0.96429061  0.52833427  0.80455294    -0.59500
O897        O  0.98996515  0.52561237  0.83436890    -0.51400
C898        C  0.97071074  0.52674523  0.82825666     0.74000
O899        O  0.96581874  0.53147424  0.71517024    -0.70900
O900        O  0.99440816  0.53306479  0.68626425    -0.49500
C901        C  0.97444396  0.53300924  0.69174043     0.75400
O902        O  0.98589841  0.45542752  0.80255584    -0.66200
O903        O  0.00400424  0.48726277  0.83277846    -0.53400
C904        C  0.99159715  0.46376609  0.82636288     0.73800
Zr905      Zr  0.99490750  0.47483069  0.75801032     2.77500
O906        O  0.94929599  0.44394921  0.75811462    -0.96900
O907        O  0.00522548  0.44264607  0.75521988    -0.77800
Zr908      Zr  0.97947393  0.52907265  0.75993508     2.70100
O909        O  0.93500290  0.49433982  0.75986984    -0.79000
O910        O  0.96969796  0.56176543  0.76055301    -0.98100
Zr911      Zr  0.02340899  0.52700115  0.80928489     2.21500
Zr912      Zr  0.02588418  0.53115945  0.71115909     2.11100
O913        O  0.98742036  0.50283856  0.73396492    -2.46800
O914        O  0.98615591  0.50054846  0.78430328    -0.78800
O915        O  0.03305802  0.50244050  0.73409826    -0.71000
O916        O  0.01611993  0.55543415  0.78575178    -2.32000
O917        O  0.03171153  0.50053197  0.78392842    -2.28200
O918        O  0.01731767  0.55743527  0.73610131    -0.72800
H919        H  0.07753189  0.56807318  0.72479655     0.79200
H920        H  0.01289930  0.56535340  0.79758228     0.80300
H921        H  0.97353666  0.49325521  0.72191585     0.82600
H922        H  0.03457914  0.48973594  0.79508723     0.80200
H923        H  0.06138251  0.63185031  0.75849060     0.43200
H924        H  0.97911859  0.57303501  0.74535144     0.42200
H925        H  0.93123571  0.48886463  0.74131737     0.41800
H926        H  0.94741626  0.42732007  0.76083599     0.39800
H927        H  0.02300585  0.45207775  0.74886749     0.42900
H928        H  0.06772064  0.48311152  0.77300506     0.37700
H929        H  0.12341172  0.55380203  0.75976252     0.43800
H930        H  0.10626693  0.60497467  0.77457914     0.40200
H931        H  0.94321461  0.44696958  0.77477002     0.45100
H932        H  0.09585979  0.50322667  0.76487811     0.43900
H933        H  0.10593615  0.61182012  0.74492760     0.44000
H934        H  0.95163793  0.55283362  0.75540302     0.44400
C935        C  0.18276506  0.50474437  0.01278669     0.03900
C936        C  0.17666711  0.50962145  0.53463970    -0.12200
C937        C  0.15723877  0.51416703  0.53668554     0.01400
C938        C  0.14490451  0.51443388  0.51370429    -0.10800
C939        C  0.15017151  0.50846211  0.99067397     0.03900
C940        C  0.17035932  0.50476762  0.98960744    -0.10200
H941        H  0.18639691  0.50972220  0.55229129     0.09500
H942        H  0.12958202  0.51746432  0.51533812     0.07000
H943        H  0.17588902  0.50113378  0.97089089     0.06900
C944        C  0.88042258  0.32530889  0.00966689     0.03900
C945        C  0.89199453  0.33734915  0.98573371    -0.12200
C946        C  0.91369662  0.36207882  0.98488353     0.01400
C947        C  0.92399424  0.37485993  0.00873181    -0.10800
C948        C  0.91682941  0.36098655  0.53363615     0.03900
C949        C  0.89560659  0.33579678  0.53382697    -0.10200
H950        H  0.88430781  0.32706471  0.96760678     0.09500
H951        H  0.94464880  0.39162904  0.50875193     0.07000
H952        H  0.88582947  0.32711879  0.55215391     0.06900
C953        C  0.84643950  0.52785446  0.00626967     0.03900
C954        C  0.85806810  0.52797500  0.53376024    -0.12200
C955        C  0.87981075  0.52701746  0.53641237     0.01400
C956        C  0.89050267  0.52359140  0.51380654    -0.10800
C957        C  0.87963346  0.52394921  0.98627754     0.03900
C958        C  0.85840675  0.52584443  0.98387970    -0.10200
H959        H  0.84960336  0.53028194  0.55113331     0.09500
H960        H  0.90698869  0.52241692  0.51573324     0.07000
H961        H  0.85105772  0.52577930  0.96462149     0.06900
C962        C  0.15179729  0.73116868  0.00934236     0.03900
C963        C  0.14064542  0.71555548  0.98734476    -0.12200
C964        C  0.11957654  0.69046195  0.99023992     0.01400
C965        C  0.10969294  0.68131831  0.01554807    -0.10800
C966        C  0.12803740  0.69628685  0.53488027     0.03900
C967        C  0.15019899  0.72036176  0.53083902    -0.10200
H968        H  0.14929622  0.72258686  0.96819353     0.09500
H969        H  0.09398864  0.66184140  0.01799880     0.07000
H970        H  0.16006113  0.73220862  0.54759919     0.06900
O971        O  0.57587622  0.52457374  0.70537137    -0.74500
O972        O  0.54947983  0.52432985  0.67429312    -0.53400
C973        C  0.57004984  0.52618379  0.68139533     0.79200
O974        O  0.48315799  0.43389306  0.78393032    -0.59100
O975        O  0.48940035  0.46212096  0.81579752    -0.52100
C976        C  0.48338279  0.44006797  0.80809655     0.71200
O977        O  0.49305983  0.44417627  0.69487004    -0.73700
O978        O  0.50363562  0.47830162  0.66848563    -0.54200
C979        C  0.49775917  0.45541401  0.67219996     0.77200
O980        O  0.57114779  0.52139602  0.79496469    -0.58800
O981        O  0.53753026  0.50975249  0.82200293    -0.51900
C982        C  0.56050079  0.51634330  0.81789366     0.73800
Zr983      Zr  0.55835245  0.52261753  0.74920806     2.54700
O984        O  0.58608931  0.50668320  0.75183832    -0.79400
O985        O  0.59507620  0.56611559  0.75071436    -0.92800
Zr986      Zr  0.49225980  0.45549100  0.74091365     2.64700
O987        O  0.51657771  0.43564776  0.74166188    -0.97700
O988        O  0.45259044  0.41472160  0.73463952    -0.79800
O989        O  0.52754441  0.49149598  0.72029817    -0.83200
O990        O  0.52351905  0.48613590  0.76978234    -2.17900
O991        O  0.52251855  0.57092932  0.79599352    -0.66600
O992        O  0.51077768  0.53643580  0.82228053    -0.51100
C993        C  0.51784285  0.55974914  0.81867261     0.72200
O994        O  0.44223703  0.49201272  0.69708391    -0.59500
O995        O  0.47557168  0.50404388  0.66939013    -0.51400
C996        C  0.45249385  0.49698000  0.67402012     0.74000
O997        O  0.43504654  0.48193646  0.78634295    -0.70900
O998        O  0.46358607  0.48579357  0.81689549    -0.49500
C999        C  0.44163095  0.48055008  0.81005599     0.75400
O1000       O  0.52560628  0.57820362  0.70676370    -0.66200
O1001       O  0.52343964  0.55157263  0.67508236    -0.53400
C1002       C  0.52647676  0.57254624  0.68264112     0.73800
Zr1003     Zr  0.52086082  0.55820905  0.75005861     2.77500
O1004       O  0.49613055  0.57760371  0.75061925    -0.96900
O1005       O  0.56063819  0.59941947  0.75303187    -0.77800
Zr1006     Zr  0.45497869  0.49112611  0.74252398     2.70100
O1007       O  0.43121125  0.51151529  0.74386396    -0.79000
O1008       O  0.41597220  0.44965173  0.73717832    -0.98100
Zr1009     Zr  0.51067669  0.51203746  0.69680208     2.21500
Zr1010     Zr  0.50290033  0.50192174  0.79431071     2.11100
O1011       O  0.48570865  0.52240638  0.77125674    -2.46800
O1012       O  0.48967329  0.52740794  0.72133864    -0.78800
O1013       O  0.53830091  0.53856402  0.77464468    -0.71000
O1014       O  0.47507769  0.47542466  0.71668093    -2.32000
O1015       O  0.54237777  0.54365299  0.72473875    -2.28200
O1016       O  0.47123361  0.47029191  0.76652653    -0.72800
H1017       H  0.52956632  0.47804850  0.78120924     0.79200
H1018       H  0.46351457  0.46398789  0.70353946     0.80300
H1019       H  0.47766580  0.52788982  0.78316046     0.82600
H1020       H  0.55592300  0.55755770  0.71453719     0.80200
H1021       H  0.44158567  0.41891945  0.72497866     0.43200
H1022       H  0.41656422  0.43888834  0.75121262     0.42200
H1023       H  0.44401234  0.52972367  0.74028490     0.41800
H1024       H  0.48297669  0.56803080  0.76429453     0.39800
H1025       H  0.56911708  0.59795028  0.76876320     0.42900
H1026       H  0.60464092  0.56828652  0.73436273     0.37700
H1027       H  0.57563690  0.48906858  0.74524231     0.43800
H1028       H  0.52854761  0.44371682  0.75647766     0.40200
H1029       H  0.50762812  0.59462287  0.75826027     0.45100
H1030       H  0.60572499  0.56588721  0.76497291     0.43900
H1031       H  0.50439150  0.41797245  0.74776825     0.44000
H1032       H  0.40238666  0.45214441  0.74283490     0.44400
C1033       C  0.48190485  0.32324265  0.99454589     0.03900
C1034       C  0.47899420  0.33193109  0.51752981    -0.12200
C1035       C  0.47896233  0.35431143  0.51786279     0.01400
C1036       C  0.47781880  0.36553863  0.99491710    -0.10800
C1037       C  0.47575682  0.35364247  0.97084269     0.03900
C1038       C  0.47803007  0.33247518  0.97089460    -0.10200
H1039       H  0.48144234  0.32440148  0.53575487     0.09500
H1040       H  0.47619878  0.38185189  0.99537455     0.07000
H1041       H  0.47627249  0.32272230  0.95279575     0.06900
C1042       C  0.32876751  0.48857323  0.99450806     0.03900
C1043       C  0.34182365  0.48758931  0.51298804    -0.12200
C1044       C  0.36239250  0.48450851  0.51133678     0.01400
C1045       C  0.37090337  0.48444639  0.99015339    -0.10800
C1046       C  0.35700379  0.48230613  0.96759043     0.03900
C1047       C  0.33599988  0.48431060  0.97001636    -0.10200
H1048       H  0.33652410  0.49116764  0.53189408     0.09500
H1049       H  0.38738853  0.48329134  0.98822581     0.07000
H1050       H  0.32506582  0.48229738  0.95265887     0.06900
C1051       C  0.69837485  0.54215152  0.99912738     0.03900
C1052       C  0.68791286  0.54277918  0.52403625    -0.12200
C1053       C  0.66492493  0.54155437  0.52251465     0.01400
C1054       C  0.65330584  0.54141684  0.99629764    -0.10800
C1055       C  0.66299000  0.53724366  0.97332471     0.03900
C1056       C  0.68563273  0.53775692  0.97495911    -0.10200
H1057       H  0.69669380  0.54505054  0.54301798     0.09500
H1058       H  0.63613660  0.54143879  0.99528494     0.07000
H1059       H  0.69336610  0.53486377  0.95735594     0.06900
C1060       C  0.53207023  0.69152319  0.99834673     0.03900
C1061       C  0.53145996  0.68017673  0.97438597    -0.12200
C1062       C  0.53471449  0.65968866  0.97383744     0.01400
C1063       C  0.53903447  0.65095909  0.99764857    -0.10800
C1064       C  0.52651025  0.65654650  0.52034414     0.03900
C1065       C  0.52516402  0.67816811  0.52052215    -0.10200
H1066       H  0.52773716  0.68684119  0.95627222     0.09500
H1067       H  0.54189460  0.63543091  0.99726350     0.07000
H1068       H  0.52716224  0.68760808  0.53891961     0.06900
C1069       C  0.40549009  0.46455259  0.87457979     0.16700
C1070       C  0.39919625  0.45993615  0.90128542    -0.32300
C1071       C  0.38462027  0.46857327  0.91162999     0.21100
C1072       C  0.37608407  0.48070191  0.89600198     0.03300
C1073       C  0.38197332  0.48490742  0.86906996    -0.22000
C1074       C  0.39709944  0.47676326  0.85879120     0.12500
S1075       S  0.42581110  0.45858123  0.85950743    -0.05700
C1076       C  0.42343648  0.47306815  0.83165365    -0.09200
C1077       C  0.40709043  0.48138406  0.83383575    -0.25800
S1078       S  0.35977553  0.49087443  0.91280254    -0.03000
C1079       C  0.36494495  0.47904040  0.94130868    -0.16400
C1080       C  0.37822379  0.46743984  0.93750546    -0.14400
H1081       H  0.40632189  0.45101722  0.91372524     0.21000
H1082       H  0.37590824  0.49497050  0.85693386     0.17000
H1083       H  0.40437344  0.49207451  0.81879477     0.19500
H1084       H  0.38327640  0.45885354  0.95284606     0.12900
C1085       C  0.40927705  0.49417757  0.56617193     0.16700
C1086       C  0.43072547  0.50043512  0.58093318    -0.32300
C1087       C  0.42759905  0.49592739  0.60813619     0.21100
C1088       C  0.40414264  0.48552876  0.62019038     0.03300
C1089       C  0.38260809  0.47920508  0.60536170    -0.22000
C1090       C  0.38578001  0.48389080  0.57808812     0.12500
S1091       S  0.40937108  0.49848525  0.53302950    -0.05700
C1092       C  0.37732224  0.48649454  0.53496037    -0.09200
C1093       C  0.36733807  0.47947158  0.56028638    -0.25800
S1094       S  0.40453661  0.48163796  0.65353153    -0.03000
C1095       C  0.43665864  0.49416278  0.65113015    -0.16400
C1096       C  0.44626921  0.50090768  0.62571360    -0.14400
H1097       H  0.44909907  0.50857613  0.57161938     0.21000
H1098       H  0.36424940  0.47113184  0.61467574     0.17000
H1099       H  0.34764699  0.47140770  0.56541457     0.19500
H1100       H  0.46592829  0.50903864  0.62033391     0.12900
C1101       C  0.53429653  0.63503089  0.90407749     0.16700
C1102       C  0.53602436  0.63162899  0.87700590    -0.32300
C1103       C  0.52892242  0.60724941  0.86867102     0.21100
C1104       C  0.52068791  0.58736993  0.88659428     0.03300
C1105       C  0.51904892  0.59079527  0.91348309    -0.22000
C1106       C  0.52596783  0.61497861  0.92173631     0.12500
S1107       S  0.54150292  0.66279267  0.91844226    -0.05700
C1108       C  0.53329408  0.64714755  0.94859110    -0.09200
C1109       C  0.52527830  0.62170963  0.94708702    -0.25800
S1110       S  0.51275416  0.55926449  0.87307237    -0.03000
C1111       C  0.52043506  0.57410434  0.84265519    -0.16400
C1112       C  0.52880390  0.59973244  0.84324753    -0.14400
H1113       H  0.54244340  0.64720382  0.86308855     0.21000
H1114       H  0.51251149  0.57519022  0.92739739     0.17000
H1115       H  0.51883685  0.60854096  0.96360666     0.19500
H1116       H  0.53441389  0.61210768  0.82610832     0.12900
C1117       C  0.53817312  0.62342824  0.57761567     0.16700
C1118       C  0.54308473  0.60790194  0.59282499    -0.32300
C1119       C  0.53727391  0.60551205  0.61963049     0.21100
C1120       C  0.52749646  0.61841887  0.63114261     0.03300
C1121       C  0.52265260  0.63417552  0.61582982    -0.22000
C1122       C  0.52801125  0.63614022  0.58870171     0.12500
S1123       S  0.54267679  0.62731288  0.54455920    -0.05700
C1124       C  0.53021186  0.64598667  0.54502218    -0.09200
C1125       C  0.52342008  0.64922505  0.57006702    -0.25800
S1126       S  0.52070037  0.61168372  0.66399041    -0.03000
C1127       C  0.53047337  0.59077782  0.66167557    -0.16400
C1128       C  0.53904001  0.58975464  0.63694186    -0.14400
H1129       H  0.55045004  0.59750905  0.58397104     0.21000
H1130       H  0.51444806  0.64386055  0.62449838     0.17000
H1131       H  0.51479733  0.65979001  0.57440581     0.19500
H1132       H  0.54528066  0.57727742  0.63160441     0.12900
C1133       C  0.63633283  0.53107023  0.90282616     0.16700
C1134       C  0.63245892  0.53220127  0.87565269    -0.32300
C1135       C  0.60803308  0.52507920  0.86737795     0.21100
C1136       C  0.58849999  0.51704666  0.88543236     0.03300
C1137       C  0.59229276  0.51561088  0.91234181    -0.22000
C1138       C  0.61657822  0.52287489  0.92055387     0.12500
S1139       S  0.66456843  0.53989592  0.91739977    -0.05700
C1140       C  0.64954567  0.53274981  0.94774255    -0.09200
C1141       C  0.62385809  0.52348545  0.94605169    -0.25800
S1142       S  0.56053366  0.50991404  0.87215447    -0.03000
C1143       C  0.57495019  0.51780273  0.84162202    -0.16400
C1144       C  0.60031552  0.52543937  0.84200671    -0.14400
H1145       H  0.64784383  0.53870872  0.86168063     0.21000
H1146       H  0.57701389  0.50948793  0.92637732     0.17000
H1147       H  0.61092912  0.51753635  0.96258020     0.19500
H1148       H  0.61245392  0.53118358  0.82480636     0.12900
C1149       C  0.61774332  0.53089575  0.63050331     0.16700
C1150       C  0.63540034  0.52870642  0.61584975    -0.32300
C1151       C  0.63895841  0.53639915  0.58926256     0.21100
C1152       C  0.62587041  0.54621979  0.57797489     0.03300
C1153       C  0.60831142  0.54842810  0.59256224    -0.22000
C1154       C  0.60439977  0.54029688  0.61888392     0.12500
S1155       S  0.60978880  0.52180117  0.66276480    -0.05700
C1156       C  0.58789459  0.53026144  0.66019897    -0.09200
C1157       C  0.58721967  0.53983939  0.63571095    -0.25800
S1158       S  0.63208728  0.55370452  0.54540730    -0.03000
C1159       C  0.65225998  0.54297573  0.54652091    -0.16400
C1160       C  0.65420711  0.53455749  0.57134036    -0.14400
H1161       H  0.64551949  0.52089145  0.62461418     0.21000
H1162       H  0.59772037  0.55564469  0.58361050     0.17000
H1163       H  0.57454314  0.54588714  0.63037786     0.19500
H1164       H  0.66534352  0.52654158  0.57588727     0.12900
C1165       C  0.47520643  0.39085644  0.85954247     0.16700
C1166       C  0.47752867  0.37344810  0.87494308    -0.32300
C1167       C  0.47294615  0.37260126  0.90213809     0.21100
C1168       C  0.46571092  0.38784877  0.91322576     0.03300
C1169       C  0.46294699  0.40480850  0.89787242    -0.22000
C1170       C  0.46819694  0.40617288  0.87098615     0.12500
S1171       S  0.48261606  0.39710918  0.82675521    -0.05700
C1172       C  0.47686944  0.42102184  0.82898248    -0.09200
C1173       C  0.46897099  0.42331534  0.85360500    -0.25800
S1174       S  0.46260620  0.38545529  0.94647392    -0.03000
C1175       C  0.47171596  0.36391463  0.94605412    -0.16400
C1176       C  0.47628061  0.35867487  0.92083897    -0.14400
H1177       H  0.48366414  0.36189842  0.86633075     0.21000
H1178       H  0.45799805  0.41723397  0.90670657     0.17000
H1179       H  0.46517746  0.43767730  0.85886143     0.19500
H1180       H  0.48282763  0.34632146  0.91629396     0.12900
C1181       C  0.49874677  0.42896570  0.60479781     0.16700
C1182       C  0.50083725  0.42550169  0.57798563    -0.32300
C1183       C  0.49273449  0.40094775  0.56977039     0.21100
C1184       C  0.48340087  0.38079392  0.58747441     0.03300
C1185       C  0.48158528  0.38432277  0.61442147    -0.22000
C1186       C  0.48929267  0.40884858  0.62262524     0.12500
S1187       S  0.50650281  0.45705582  0.61827025    -0.05700
C1188       C  0.49675680  0.44165895  0.64838222    -0.09200
C1189       C  0.48817703  0.41603793  0.64779262    -0.25800
S1190       S  0.47405441  0.35240637  0.57328925    -0.03000
C1191       C  0.48235884  0.36774643  0.54300982    -0.16400
C1192       C  0.49232850  0.39368219  0.54438234    -0.14400
H1193       H  0.50799698  0.44117543  0.56404858     0.21000
H1194       H  0.47407169  0.36856939  0.62828708     0.17000
H1195       H  0.48120606  0.40332956  0.66471964     0.19500
H1196       H  0.49904152  0.40672912  0.52775053     0.12900
C1197       C  0.76245319  0.54575074  0.51624821     0.16700
C1198       C  0.78473525  0.54968585  0.52747770    -0.32300
C1199       C  0.79662010  0.53901524  0.51479969     0.21100
C1200       C  0.78690940  0.52531022  0.49184564     0.03300
C1201       C  0.76475728  0.52153584  0.48053163    -0.22000
C1202       C  0.75274885  0.53198390  0.49332968     0.12500
S1203       S  0.74456321  0.55609715  0.52914750    -0.05700
C1204       C  0.72220866  0.54245143  0.00110221    -0.09200
C1205       C  0.72866124  0.52959906  0.98402958    -0.25800
S1206       S  0.80398839  0.51384344  0.47954259    -0.03000
C1207       C  0.82377331  0.52934238  0.00299684    -0.16400
C1208       C  0.81819443  0.54036777  0.52285008    -0.14400
H1209       H  0.79228272  0.56029900  0.54548390     0.21000
H1210       H  0.75706048  0.51068534  0.46268156     0.17000
H1211       H  0.71726898  0.51817178  0.96765022     0.19500
H1212       H  0.82889343  0.55052759  0.54011477     0.12900
C1213       C  0.27464043  0.49992706  0.98723930     0.16700
C1214       C  0.25737051  0.50585824  0.97815739    -0.32300
C1215       C  0.23811779  0.50170600  0.99543615     0.21100
C1216       C  0.23609976  0.49199823  0.02060282     0.03300
C1217       C  0.25342177  0.48607143  0.02971923    -0.22000
C1218       C  0.27278256  0.49034049  0.01244682     0.12500
S1219       S  0.29911220  0.50351682  0.96913643    -0.05700
C1220       C  0.30716747  0.49193090  0.99574152    -0.09200
C1221       C  0.29148134  0.48581242  0.01753790    -0.25800
S1222       S  0.21157094  0.48864215  0.03857406    -0.03000
C1223       C  0.20394408  0.50065244  0.01195512    -0.16400
C1224       C  0.21978571  0.50668306  0.99032351    -0.14400
H1225       H  0.25891128  0.51342730  0.95848501     0.21000
H1226       H  0.25192599  0.47856758  0.04941247     0.17000
H1227       H  0.29296673  0.47627786  0.53083146     0.19500
H1228       H  0.21846124  0.51487713  0.97200483     0.12900
C1229       C  0.94986889  0.54106841  0.62608892     0.16700
C1230       C  0.94738800  0.54529474  0.59960409    -0.32300
C1231       C  0.92339360  0.53821361  0.59076017     0.21100
C1232       C  0.90261871  0.52764266  0.60750489     0.03300
C1233       C  0.90518852  0.52380598  0.63441061    -0.22000
C1234       C  0.92937854  0.53068848  0.64328529     0.12500
S1235       S  0.97722612  0.54685264  0.63949703    -0.05700
C1236       C  0.96130678  0.53528591  0.66893907    -0.09200
C1237       C  0.93593909  0.52753683  0.66827154    -0.25800
S1238       S  0.87491989  0.51925760  0.59190475    -0.03000
C1239       C  0.89168195  0.52970831  0.56254761    -0.16400
C1240       C  0.91738856  0.53973434  0.56530958    -0.14400
H1241       H  0.96340999  0.55313880  0.58623720     0.21000
H1242       H  0.88902205  0.51530384  0.64761906     0.17000
H1243       H  0.92293671  0.51931341  0.68478545     0.19500
H1244       H  0.93115435  0.54750050  0.54943679     0.12900
C1245       C  0.92556489  0.52750803  0.87894424     0.16700
C1246       C  0.90726537  0.52951013  0.89255187    -0.32300
C1247       C  0.90536095  0.52535669  0.91993379     0.21100
C1248       C  0.92078917  0.51924833  0.93296466     0.03300
C1249       C  0.93901809  0.51728096  0.91945923    -0.22000
C1250       C  0.94111432  0.52168417  0.89226186     0.12500
S1251       S  0.93123952  0.53201990  0.84579030    -0.05700
C1252       C  0.95493928  0.52619349  0.85008632    -0.09200
C1253       C  0.95802282  0.52102731  0.87591557    -0.25800
S1254       S  0.91600861  0.51526166  0.96598114    -0.03000
C1255       C  0.89301135  0.52229788  0.96283030    -0.16400
C1256       C  0.88936985  0.52714104  0.93688937    -0.14400
H1257       H  0.89522557  0.53429451  0.88230761     0.21000
H1258       H  0.95122683  0.51275016  0.92976801     0.17000
H1259       H  0.97188725  0.51691388  0.88242886     0.19500
H1260       H  0.87630135  0.53234303  0.93056747     0.12900
C1261       C  0.96978732  0.43897247  0.62084334     0.16700
C1262       C  0.96565510  0.43460711  0.59379779    -0.32300
C1263       C  0.94889976  0.40954586  0.58568884     0.21100
C1264       C  0.93664145  0.38967395  0.60369253     0.03300
C1265       C  0.94062900  0.39405777  0.63090781    -0.22000
C1266       C  0.95759242  0.41922878  0.63908532     0.12500
S1267       S  0.98943195  0.46807928  0.63420009    -0.05700
C1268       C  0.98127345  0.45388345  0.66501476    -0.09200
C1269       C  0.96414149  0.42766135  0.66461945    -0.25800
S1270       S  0.91743900  0.36065889  0.58953412    -0.03000
C1271       C  0.92621033  0.37536737  0.55883409    -0.16400
C1272       C  0.94293786  0.40162582  0.56016169    -0.14400
H1273       H  0.97523442  0.45011024  0.57964625     0.21000
H1274       H  0.93105399  0.37854350  0.64503202     0.17000
H1275       H  0.95664210  0.41554529  0.68195576     0.19500
H1276       H  0.95051428  0.41459512  0.54350916     0.12900
C1277       C  0.97785817  0.42820032  0.89191950     0.20300
C1278       C  0.97742145  0.42245965  0.91874733    -0.32300
C1279       C  0.95468064  0.40202356  0.92924342     0.21100
C1280       C  0.93356856  0.38762582  0.91355664     0.03300
C1281       C  0.93420061  0.39294550  0.88657899    -0.22000
C1282       C  0.95675598  0.41370370  0.87616102     0.12500
S1283       S  0.00237467  0.45425161  0.87650140    -0.05700
C1284       C  0.98395103  0.44577347  0.84856822    -0.09200
C1285       C  0.96030188  0.42345471  0.85101459    -0.25800
S1286       S  0.90745591  0.36456028  0.93019335    -0.03000
C1287       C  0.92496381  0.37432111  0.95889426    -0.16400
C1288       C  0.94996323  0.39446143  0.95519490    -0.14400
H1289       H  0.99374647  0.43409623  0.93112084     0.21000
H1290       H  0.91752058  0.38199189  0.87446789     0.17000
H1291       H  0.94583182  0.41593934  0.83595936     0.19500
H1292       H  0.96403823  0.40324886  0.97055149     0.12900
C1293       C  0.11348598  0.54082833  0.62736902     0.16700
C1294       C  0.12050200  0.54457343  0.60084164    -0.32300
C1295       C  0.13300176  0.53329787  0.59146615     0.21100
C1296       C  0.13893117  0.51942062  0.60784317     0.03300
C1297       C  0.13256918  0.51628801  0.63473301    -0.22000
C1298       C  0.11944169  0.52711061  0.64404448     0.12500
S1299       S  0.09538127  0.55028976  0.64125140    -0.05700
C1300       C  0.09545582  0.53546052  0.66994558    -0.09200
C1301       C  0.10945584  0.52432875  0.66884888    -0.25800
S1302       S  0.15266589  0.50592931  0.59187907    -0.03000
C1303       C  0.14991070  0.51881101  0.56275921    -0.16400
C1304       C  0.13944531  0.53326007  0.56582929    -0.14400
H1305       H  0.11538607  0.55486624  0.58777354     0.21000
H1306       H  0.13671293  0.50506024  0.64753803     0.17000
H1307       H  0.11093940  0.51354485  0.68474772     0.19500
H1308       H  0.13633009  0.54305991  0.55010512     0.12900
C1309       C  0.10832986  0.50873084  0.93494093     0.16700
C1310       C  0.08948921  0.50881023  0.92030111    -0.32300
C1311       C  0.09408602  0.51476121  0.89344563     0.21100
C1312       C  0.11625662  0.52000365  0.88143521     0.03300
C1313       C  0.13516592  0.51985030  0.89615944    -0.22000
C1314       C  0.13071255  0.51424390  0.92325067     0.12500
S1315       S  0.10657784  0.50303214  0.96790323    -0.05700
C1316       C  0.13666243  0.50850909  0.96649545    -0.09200
C1317       C  0.14705087  0.51408627  0.94122381    -0.25800
S1318       S  0.11786282  0.52670229  0.84842140    -0.03000
C1319       C  0.08851577  0.52274164  0.85110140    -0.16400
C1320       C  0.07823534  0.51639042  0.87627319    -0.14400
H1321       H  0.07212157  0.50477022  0.92954019     0.21000
H1322       H  0.15266594  0.52420835  0.88699554     0.17000
H1323       H  0.16584105  0.51863852  0.93627299     0.19500
H1324       H  0.05995897  0.51298068  0.88175771     0.12900
C1325       C  0.06994967  0.63197484  0.63021316     0.16700
C1326       C  0.06873960  0.63899132  0.60434212    -0.32300
C1327       C  0.09098536  0.65929016  0.59311119     0.21100
C1328       C  0.11344969  0.67243316  0.60707846     0.03300
C1329       C  0.11448878  0.66594584  0.63342154    -0.22000
C1330       C  0.09220167  0.64525975  0.64461234     0.12500
S1331       S  0.04578244  0.60578237  0.64569817    -0.05700
C1332       C  0.06559629  0.61268087  0.67210724    -0.09200
C1333       C  0.08966558  0.63446272  0.66908634    -0.25800
S1334       S  0.13876412  0.69495177  0.58876556    -0.03000
C1335       C  0.11881994  0.68623747  0.56192972    -0.16400
C1336       C  0.09380657  0.66732927  0.56753042    -0.14400
H1337       H  0.05146040  0.62829748  0.59301990     0.21000
H1338       H  0.13208806  0.67585199  0.64430759     0.17000
H1339       H  0.10484542  0.64101780  0.68323793     0.19500
H1340       H  0.07841856  0.65923171  0.55350903     0.12900
C1341       C  0.08646669  0.64085110  0.88275994     0.16700
C1342       C  0.09926568  0.66361191  0.89681277    -0.32300
C1343       C  0.09966256  0.66186723  0.92432825     0.21100
C1344       C  0.08778513  0.63854953  0.93727874     0.03300
C1345       C  0.07479066  0.61579386  0.92328532    -0.22000
C1346       C  0.07447693  0.61754377  0.89579494     0.12500
S1347       S  0.08430562  0.63880706  0.84925368    -0.05700
C1348       C  0.06701244  0.60617276  0.85288795    -0.09200
C1349       C  0.06321357  0.59760236  0.87879423    -0.25800
S1350       S  0.09087398  0.64051334  0.97060525    -0.03000
C1351       C  0.10848921  0.67328947  0.96727755    -0.16400
C1352       C  0.11143235  0.68182198  0.94136234    -0.14400
H1353       H  0.10870373  0.68187242  0.88674244     0.21000
H1354       H  0.06552231  0.59753463  0.93335762     0.17000
H1355       H  0.05293897  0.57779483  0.88489145     0.19500
H1356       H  0.12147305  0.70155226  0.93512302     0.12900
C1357       C  0.78392883  0.22441505  0.98329575     0.16700
C1358       C  0.80087330  0.24994498  0.97617857    -0.32300
C1359       C  0.82123098  0.26498186  0.99308407     0.21100
C1360       C  0.82471341  0.25512680  0.01605130     0.03300
C1361       C  0.80774058  0.22952092  0.02318764    -0.22000
C1362       C  0.78724650  0.21447791  0.00631325     0.12500
S1363       S  0.75770887  0.20331395  0.96571852    -0.05700
C1364       C  0.75073332  0.18078691  0.98980825    -0.09200
C1365       C  0.76826751  0.18943252  0.01015413    -0.25800
S1366       S  0.84986611  0.27732315  0.53845097    -0.03000
C1367       C  0.85731607  0.29914641  0.00961654    -0.16400
C1368       C  0.83968385  0.29013154  0.98937752    -0.14400
H1369       H  0.79823677  0.25779194  0.95828519     0.21000
H1370       H  0.81030162  0.22171363  0.04115226     0.17000
H1371       H  0.75774741  0.18508284  0.53571315     0.19500
H1372       H  0.84031724  0.30135330  0.97266701     0.12900
C1373       C  0.47771710  0.25914994  0.50447627     0.16700
C1374       C  0.47559445  0.23711224  0.51445965    -0.32300
C1375       C  0.48714006  0.22699906  0.50014906     0.21100
C1376       C  0.50015135  0.23827453  0.47692948     0.03300
C1377       C  0.50213260  0.26022158  0.46681937    -0.22000
C1378       C  0.49060056  0.27035756  0.48113996     0.12500
S1379       S  0.46588738  0.27483895  0.51944805    -0.05700
C1380       C  0.48471599  0.30134453  0.99471832    -0.09200
C1381       C  0.49920126  0.29827383  0.97642810    -0.25800
S1382       S  0.52701124  0.23377987  0.96561405    -0.03000
C1383       C  0.51362243  0.21070951  0.99015111    -0.16400
C1384       C  0.48728149  0.20578679  0.50675279    -0.14400
H1385       H  0.46558670  0.22837048  0.53271820     0.21000
H1386       H  0.52471539  0.27884361  0.95174376     0.17000
H1387       H  0.50921575  0.31108434  0.96002424     0.19500
H1388       H  0.47774364  0.19415503  0.52397856     0.12900
C1389       C  0.63129417  0.09781321  0.56900537     0.16700
C1390       C  0.60843039  0.08267959  0.58260863    -0.32300
C1391       C  0.60974882  0.07784086  0.60927179     0.21100
C1392       C  0.63278173  0.08779463  0.62198448     0.03300
C1393       C  0.65573791  0.10304127  0.60832708    -0.22000
C1394       C  0.65442139  0.10773793  0.58151013     0.12500
S1395       S  0.63342780  0.10455259  0.53633560    -0.05700
C1396       C  0.66596112  0.12047252  0.53912687    -0.09200
C1397       C  0.67449178  0.12106525  0.56448250    -0.25800
S1398       S  0.63011864  0.08018832  0.65468915    -0.03000
C1399       C  0.59764867  0.06362458  0.65110835    -0.16400
C1400       C  0.58955211  0.06377269  0.62577247    -0.14400
H1401       H  0.59038554  0.07481464  0.57276574     0.21000
H1402       H  0.67377999  0.11074365  0.61810873     0.17000
H1403       H  0.69416290  0.12958663  0.56991035     0.19500
H1404       H  0.56992198  0.05477595  0.61989413     0.12900
C1405       C  0.64008153  0.09258749  0.85901678     0.16700
C1406       C  0.66170166  0.11053128  0.87311637    -0.32300
C1407       C  0.66480392  0.10368557  0.89861270     0.21100
C1408       C  0.64754677  0.07981077  0.90911277     0.03300
C1409       C  0.62600220  0.06198449  0.89515026    -0.22000
C1410       C  0.62251004  0.06908676  0.87013550     0.12500
S1411       S  0.63227041  0.09713531  0.82807853    -0.05700
C1412       C  0.60480133  0.06732782  0.83067455    -0.09200
C1413       C  0.60213495  0.05470047  0.85417065    -0.25800
S1414       S  0.65369857  0.07536079  0.94050339    -0.03000
C1415       C  0.67921890  0.10662453  0.94053068    -0.16400
C1416       C  0.68317486  0.11914364  0.91646876    -0.14400
H1417       H  0.67512286  0.12919254  0.86486987     0.21000
H1418       H  0.61215532  0.04361988  0.90374329     0.17000
H1419       H  0.58618185  0.03582738  0.85920173     0.19500
H1420       H  0.69753039  0.13896932  0.91268914     0.12900
C1421       C  0.49437022  0.10077271  0.57234402     0.16700
C1422       C  0.49209450  0.08083760  0.58743569    -0.32300
C1423       C  0.50013825  0.08587305  0.61358959     0.21100
C1424       C  0.50920190  0.10941490  0.62470437     0.03300
C1425       C  0.51137832  0.12944061  0.60956308    -0.22000
C1426       C  0.50404001  0.12461743  0.58301432     0.12500
S1427       S  0.48792425  0.09887721  0.53963761    -0.05700
C1428       C  0.49919214  0.13087991  0.53977031    -0.09200
C1429       C  0.50664036  0.14199541  0.56440610    -0.25800
S1430       S  0.51811112  0.11135807  0.65692574    -0.03000
C1431       C  0.51021353  0.08037548  0.65489620    -0.16400
C1432       C  0.50099738  0.06935846  0.63062831    -0.14400
H1433       H  0.48515881  0.06240919  0.57889513     0.21000
H1434       H  0.51915094  0.14810951  0.61785957     0.17000
H1435       H  0.51492947  0.16199054  0.56819402     0.19500
H1436       H  0.49558550  0.05032618  0.62554310     0.12900
C1437       C  0.53884184  0.12789001  0.91299844     0.16700
C1438       C  0.54351161  0.11173822  0.89906989    -0.32300
C1439       C  0.53537709  0.10663859  0.87299280     0.21100
C1440       C  0.52394291  0.11786856  0.86087898     0.03300
C1441       C  0.51951160  0.13434834  0.87478956    -0.22000
C1442       C  0.52688194  0.13875117  0.90129349     0.12500
S1443       S  0.54489161  0.13395911  0.94551738    -0.05700
C1444       C  0.53026607  0.15062089  0.94396554    -0.09200
C1445       C  0.52207952  0.15207874  0.91896377    -0.25800
S1446       S  0.51490670  0.10852129  0.82919529    -0.03000
C1447       C  0.52588512  0.08868247  0.83283722    -0.16400
C1448       C  0.53647608  0.08983814  0.85706646    -0.14400
H1449       H  0.55216963  0.10268759  0.90850232     0.21000
H1450       H  0.50991117  0.14257016  0.86567454     0.17000
H1451       H  0.51176377  0.16096054  0.91428204     0.19500
H1452       H  0.54430264  0.07875098  0.86282776     0.12900
C1453       C  0.26680111  0.82189129  0.50999976     0.16700
C1454       C  0.24796090  0.79931434  0.52212806    -0.32300
C1455       C  0.22462405  0.78519511  0.50943575     0.21100
C1456       C  0.22024676  0.79290115  0.48546044     0.03300
C1457       C  0.23927818  0.81549293  0.47310589    -0.22000
C1458       C  0.26264029  0.82989080  0.48605595     0.12500
S1459       S  0.29554042  0.84228554  0.52352103    -0.05700
C1460       C  0.29467046  0.86488693  0.00393653    -0.09200
C1461       C  0.27582305  0.85571210  0.98493060    -0.25800
S1462       S  0.18287534  0.77542528  0.97847092    -0.03000
C1463       C  0.17553898  0.75654997  0.00632762    -0.16400
C1464       C  0.20397310  0.76297439  0.51853815    -0.14400
H1465       H  0.25119662  0.79326793  0.54094735     0.21000
H1466       H  0.22884426  0.82453912  0.96036810     0.17000
H1467       H  0.27743837  0.86523249  0.96641980     0.19500
H1468       H  0.20371680  0.75354329  0.53664275     0.12900
C1469       C  0.42181327  0.98114165  0.61578859     0.16700
C1470       C  0.41726071  0.98268749  0.58914745    -0.32300
C1471       C  0.39478544  0.96254904  0.57863181     0.21100
C1472       C  0.37710912  0.94233973  0.59424530     0.03300
C1473       C  0.38113753  0.94134425  0.62129708    -0.22000
C1474       C  0.40421083  0.96100493  0.63162779     0.12500
S1475       S  0.44993857  0.00120631  0.63040644    -0.05700
C1476       C  0.43832714  0.98224525  0.65817490    -0.09200
C1477       C  0.41344667  0.96179375  0.65642264    -0.25800
S1478       S  0.35271214  0.91838717  0.57708022    -0.03000
C1479       C  0.36680290  0.93538623  0.54827387    -0.16400
C1480       C  0.38884024  0.95895257  0.55244796    -0.14400
H1481       H  0.43149734  0.99799422  0.57673964     0.21000
H1482       H  0.36772666  0.92511274  0.63329615     0.17000
H1483       H  0.40347206  0.94737638  0.67157748     0.19500
H1484       H  0.40076732  0.97238326  0.53724162     0.12900
C1485       C  0.41001760  0.94403956  0.92310604     0.16700
C1486       C  0.43270917  0.95688717  0.90873187    -0.32300
C1487       C  0.43107880  0.95704595  0.88127170     0.21100
C1488       C  0.40788468  0.94464600  0.86854174     0.03300
C1489       C  0.38507125  0.93147374  0.88299847    -0.22000
C1490       C  0.38670683  0.93161879  0.91062853     0.12500
S1491       S  0.40830297  0.94303069  0.95650400    -0.05700
C1492       C  0.37560670  0.92587656  0.95414656    -0.09200
C1493       C  0.36683286  0.92096941  0.92833292    -0.25800
S1494       S  0.41026556  0.94799298  0.83498549    -0.03000
C1495       C  0.44284092  0.96657951  0.83831390    -0.16400
C1496       C  0.45110884  0.96951454  0.86412614    -0.14400
H1497       H  0.45088732  0.96683393  0.91857342     0.21000
H1498       H  0.36689301  0.92200415  0.87318247     0.17000
H1499       H  0.34706932  0.91092149  0.92273448     0.19500
H1500       H  0.47079246  0.98055969  0.87011971     0.12900
C1501       C  0.52135997  0.74557837  0.01050954     0.16700
C1502       C  0.51611861  0.76280375  0.02117169    -0.32300
C1503       C  0.52388622  0.78509493  0.00670738     0.21100
C1504       C  0.53616427  0.78991611  0.98268209     0.03300
C1505       C  0.54118636  0.77259634  0.97189985    -0.22000
C1506       C  0.53353602  0.75038145  0.98639704     0.12500
S1507       S  0.51466461  0.71812314  0.02555149    -0.05700
C1508       C  0.52861443  0.71308808  0.99913048    -0.09200
C1509       C  0.53754237  0.73172005  0.97963690    -0.25800
S1510       S  0.54400237  0.81792492  0.96820296    -0.03000
C1511       C  0.53034184  0.82333719  0.99466956    -0.16400
C1512       C  0.52052047  0.80414645  0.01373470    -0.14400
H1513       H  0.50666285  0.75912853  0.04003208     0.21000
H1514       H  0.55082910  0.77637554  0.95314067     0.17000
H1515       H  0.54735620  0.73214936  0.96194181     0.19500
H1516       H  0.51078290  0.80363801  0.03150360     0.12900
C1517       C  0.50397694  0.90545421  0.57725914     0.16700
C1518       C  0.49801031  0.92058892  0.59137896    -0.32300
C1519       C  0.50868096  0.92853857  0.61634979     0.21100
C1520       C  0.52383083  0.92093614  0.62730157     0.03300
C1521       C  0.52961849  0.90551763  0.61323523    -0.22000
C1522       C  0.51963635  0.89828630  0.58778398     0.12500
S1523       S  0.49535469  0.89672089  0.54553495    -0.05700
C1524       C  0.51387876  0.88411824  0.54583446    -0.09200
C1525       C  0.52515878  0.88567165  0.56986447    -0.25800
S1526       S  0.53494840  0.93281414  0.65791666    -0.03000
C1527       C  0.51956602  0.94869201  0.65550031    -0.16400
C1528       C  0.50637046  0.94465214  0.63229351    -0.14400
H1529       H  0.48637170  0.92675703  0.58282213     0.21000
H1530       H  0.54205515  0.90016802  0.62138864     0.17000
H1531       H  0.53817636  0.87966446  0.57339606     0.19500
H1532       H  0.49552310  0.95293668  0.62742621     0.12900
C1533       C  0.52566210  0.92081602  0.86395027     0.16700
C1534       C  0.52324553  0.90029307  0.87835612    -0.32300
C1535       C  0.52785794  0.90345730  0.90557664     0.21100
C1536       C  0.53491659  0.92613299  0.91761681     0.03300
C1537       C  0.53742835  0.94653397  0.90331199    -0.22000
C1538       C  0.53244167  0.94325345  0.87637904     0.12500
S1539       S  0.52011146  0.92091000  0.83095628    -0.05700
C1540       C  0.52660288  0.95131407  0.83433341    -0.09200
C1541       C  0.53297823  0.96070092  0.85960872    -0.25800
S1542       S  0.53899423  0.92635573  0.95059906    -0.03000
C1543       C  0.53055065  0.89517021  0.94880262    -0.16400
C1544       C  0.52540994  0.88554944  0.92339022    -0.14400
H1545       H  0.51759857  0.88256370  0.86889375     0.21000
H1546       H  0.54256993  0.96408001  0.91288802     0.17000
H1547       H  0.53760603  0.97933272  0.86550494     0.19500
H1548       H  0.51932762  0.86631136  0.91826132     0.12900
loop_ 
_geom_bond_atom_site_label_1 
_geom_bond_atom_site_label_2 
_geom_bond_distance 
_geom_bond_site_symmetry_2 
_ccdc_geom_bond_type 
C1            C6   1.411       .  A
C1          C776   1.412       .  A
C1          C737   1.492       .  S
C2            C3   1.405       .  A
C2          C775   1.414   1_554  A
C2            H7   1.081       .  S
C3            C4   1.400   1_554  A
C3          C750   1.485       .  S
C4          C779   1.397       .  A
C4            H8   1.080       .  S
C5            C6   1.406       .  A
C5          C778   1.400       .  A
C5          C769   1.489       .  S
C6            H9   1.079       .  S
C10          C11   1.401       .  A
C10         C789   1.397       .  A
C10         C686   1.472       .  S
C11          C12   1.408       .  A
C11          H16   1.083       .  S
C12          C13   1.412       .  A
C12         C718   1.487       .  S
C13         C788   1.411       .  A
C13          H17   1.080       .  S
C14          C15   1.401       .  A
C14         C787   1.406       .  A
C14         C705   1.496       .  S
C15         C784   1.404       .  A
C15          H18   1.082       .  S
O19         Zr31   2.458       .  S
O19          C21   1.290       .  A
O20         Zr57   2.415   1_565  S
O20          C21   1.286       .  A
C21         C721   1.478       .  S
O22         Zr34   2.442       .  S
O22          C24   1.287       .  A
O23         Zr58   2.422   1_565  S
O23          C24   1.287       .  A
C24         C753   1.470       .  S
O25         Zr34   2.452       .  S
O25          C27   1.289       .  A
O26         Zr57   2.400   1_565  S
O26          C27   1.283       .  A
C27         C766   1.469       .  S
O28         Zr31   2.465       .  S
O28          C30   1.292       .  A
O29         Zr58   2.396       .  S
O29          C30   1.282   1_545  A
C30         C702   1.470       .  S
Zr31         O32   2.435       .  S
Zr31         O33   2.436       .  S
Zr31         O37   2.376       .  S
Zr31         O38   2.374       .  S
Zr31         O61   2.368   1_565  S
Zr31         O63   2.382   1_565  S
O32          H75   0.990       .  S
O33          H74   0.990   1_565  S
O33          H78   0.990       .  S
Zr34         O35   2.435       .  S
Zr34         O36   2.435       .  S
Zr34         O38   2.382       .  S
Zr34         O37   2.370       .  S
Zr34         O62   2.370   1_565  S
Zr34         O64   2.377   1_565  S
O35          H76   0.990       .  S
O35          H79   0.990       .  S
O36          H69   0.990       .  S
O37         Zr57   2.375   1_565  S
O38         Zr58   2.381   1_565  S
O38          H65   0.965       .  S
O39         Zr51   2.444       .  S
O39          C41   1.288       .  A
O40         Zr58   2.421       .  S
O40          C41   1.287       .  A
C41         C657   1.471       .  S
O42         Zr54   2.435       .  S
O42          C44   1.285       .  A
O43         Zr57   2.412       .  S
O43          C44   1.285       .  A
C44         C638   1.462       .  S
O45         Zr54   2.442       .  S
O45          C47   1.287       .  A
O46         Zr58   2.404       .  S
O46          C47   1.284       .  A
C47         C625   1.468       .  S
O48         Zr51   2.441       .  S
O48          C50   1.287       .  A
O49         Zr57   2.418       .  S
O49          C50   1.286       .  A
C50         C673   1.472       .  S
Zr51         O52   2.435       .  S
Zr51         O53   2.434       .  S
Zr51         O59   2.375       .  S
Zr51         O60   2.366       .  S
Zr51         O63   2.376       .  S
Zr51         O61   2.367       .  S
O52          H72   0.990       .  S
O52          H77   0.990       .  S
O53          H73   0.990       .  S
Zr54         O55   2.433       .  S
Zr54         O56   2.436       .  S
Zr54         O60   2.375       .  S
Zr54         O59   2.372       .  S
Zr54         O64   2.372       .  S
Zr54         O62   2.367       .  S
O55          H71   0.990       .  S
O56          H70   0.990       .  S
O56          H80   0.990       .  S
Zr57         O60   2.370       .  S
Zr57         O62   2.377       .  S
Zr57         O63   2.376       .  S
Zr58         O59   2.377       .  S
Zr58         O61   2.370       .  S
Zr58         O64   2.374       .  S
O59          H67   0.967       .  S
O62          H66   0.967       .  S
O63          H68   0.965       .  S
C81          C86   1.411       .  A
C81         C856   1.412       .  A
C81         C609   1.492       .  S
C82          C83   1.405       .  A
C82         C855   1.414   1_554  A
C82          H87   1.081       .  S
C83          C84   1.399   1_554  A
C83         C654   1.485       .  S
C84         C859   1.398       .  A
C84          H88   1.081       .  S
C85          C86   1.405       .  A
C85         C858   1.402       .  A
C85         C670   1.490       .  S
C86          H89   1.080       .  S
C90          C91   1.410       .  A
C90         C869   1.409       .  A
C90         C590   1.481       .  S
C91          C92   1.402       .  A
C91          H96   1.082       .  S
C92          C93   1.399       .  A
C92         C641   1.482       .  S
C93         C868   1.396       .  A
C93          H97   1.080       .  S
C94          C95   1.401       .  A
C94         C867   1.398   1_554  A
C94         C622   1.479       .  S
C95         C864   1.408   1_554  A
C95          H98   1.083       .  S
O99        Zr111   2.460       .  S
O99         C101   1.290       .  A
O100       Zr137   2.422       .  S
O100        C101   1.286       .  A
C101        C545   1.481       .  S
O102       Zr114   2.437       .  S
O102        C104   1.285       .  A
O103       Zr138   2.399       .  S
O103        C104   1.281       .  A
C104        C558   1.456       .  S
O105       Zr114   2.438       .  S
O105        C107   1.287       .  A
O106       Zr137   2.408       .  S
O106        C107   1.283       .  A
C107        C574   1.469       .  S
O108       Zr111   2.451       .  S
O108        C110   1.288       .  A
O109       Zr138   2.404       .  S
O109        C110   1.283       .  A
C110        C526   1.467       .  S
Zr111       O112   2.434       .  S
Zr111       O113   2.436       .  S
Zr111       O117   2.381       .  S
Zr111       O118   2.379       .  S
Zr111       O141   2.380       .  S
Zr111       O143   2.369       .  S
O112        H155   0.990       .  S
O113        H154   0.990       .  S
O113        H158   0.990       .  S
Zr114       O115   2.440       .  S
Zr114       O116   2.435       .  S
Zr114       O118   2.369       .  S
Zr114       O117   2.376       .  S
Zr114       O142   2.372       .  S
Zr114       O144   2.282       .  S
O115        H156   0.990       .  S
O115        H159   0.990       .  S
O116        H149   0.990       .  S
O117       Zr137   2.373       .  S
O118       Zr138   2.371       .  S
O118        H145   0.966       .  S
O119       Zr131   2.467       .  S
O119        C121   1.292       .  A
O120       Zr138   2.406       .  S
O120        C121   1.283   1_455  A
C121        C494   1.477       .  S
O122       Zr134   2.459       .  S
O122        C124   1.291       .  A
O123       Zr137   2.414   1_655  S
O123        C124   1.284       .  A
C124        C478   1.477       .  S
O125       Zr134   2.471       .  S
O125        C127   1.291       .  A
O126       Zr138   2.393   1_655  S
O126        C127   1.281       .  A
C127        C462   1.473       .  S
O128       Zr131   2.480       .  S
O128        C130   1.294       .  A
O129       Zr137   2.376       .  S
O129        C130   1.278   1_455  A
C130        C510   1.468       .  S
Zr131       O132   2.437       .  S
Zr131       O133   2.435   1_655  S
Zr131       O139   2.381       .  S
Zr131       O140   2.382       .  S
Zr131       O143   2.373   1_655  S
Zr131       O141   2.384   1_655  S
O132        H152   0.990       .  S
O132        H157   0.990       .  S
O133        H153   0.990   1_455  S
Zr134       O135   2.435       .  S
Zr134       O136   2.435       .  S
Zr134       O140   2.380       .  S
Zr134       O139   2.374       .  S
Zr134       O142   2.379   1_655  S
Zr134       O144   2.283   1_655  S
O135        H151   0.990       .  S
O136        H150   0.990       .  S
O136        H160   0.990       .  S
Zr137       O140   2.383   1_455  S
Zr137       O142   2.379       .  S
Zr137       O143   2.376       .  S
Zr138       O139   2.376   1_455  S
Zr138       O141   2.371       .  S
Zr138       O144   2.267       .  S
O139        H147   0.966       .  S
O142        H146   0.966       .  S
O143        H148   0.966       .  S
C161        C166   1.413       .  A
C161        C936   1.405       .  A
C161        C449   1.487       .  S
C162        C163   1.400       .  A
C162        C935   1.406       .  A
C162        H167   1.082       .  S
C163        C164   1.404       .  A
C163        C529   1.485       .  S
C164        C939   1.405   1_554  A
C164        H168   1.080       .  S
C165        C166   1.411       .  A
C165        C938   1.407       .  A
C165        C542   1.496       .  S
C166        H169   1.081       .  S
C170        C171   1.405       .  A
C170        C949   1.404       .  A
C170        C593   1.489       .  S
C171        C172   1.402       .  A
C171        H176   1.079       .  S
C172        C173   1.410       .  A
C172        C513   1.497       .  S
C173        C948   1.413       .  A
C173        H951   1.076       .  S
C174        C175   1.412       .  A
C174        C947   1.414       .  A
C174        C497   1.501       .  S
C175        C944   1.405       .  A
C175        H178   1.081       .  S
H177        C947   1.077       .  S
C179        C184   1.408       .  A
C179        C954   1.410       .  A
C179        C433   1.488       .  S
C180        C181   1.404       .  A
C180        C953   1.411       .  A
C180        H185   1.083       .  S
C181        C182   1.404       .  A
C181        C465   1.489       .  S
C182        C957   1.404   1_554  A
C182        H186   1.079       .  S
C183        C184   1.405       .  A
C183        C956   1.403       .  A
C183        C481   1.491       .  S
C184        H187   1.081       .  S
C188        C189   1.401       .  A
C188        C967   1.407       .  A
C188        C689   1.478       .  S
C189        C190   1.403       .  A
C189        H194   1.081       .  S
C190        C191   1.404       .  A
C190        C577   1.484       .  S
C191        C966   1.406       .  A
C191        H195   1.080       .  S
C192        C193   1.402       .  A
C192        C965   1.405       .  A
C192        C561   1.483       .  S
C193        C962   1.405       .  A
C193        H196   1.083       .  S
O197       Zr209   2.463       .  S
O197        C199   1.291       .  A
O198       Zr235   2.398       .  S
O198        C199   1.282       .  A
C199        C382   1.471       .  S
O200       Zr212   2.465       .  S
O200        C202   1.291       .  A
O201       Zr236   2.393       .  S
O201        C202   1.281       .  A
C202        C398   1.470       .  S
O203       Zr212   2.451       .  S
O203        C205   1.290       .  A
O204       Zr235   2.407       .  S
O204        C205   1.283       .  A
C205        C414   1.470       .  S
O206       Zr209   2.467       .  S
O206        C208   1.292       .  A
O207       Zr236   2.408       .  S
O207        C208   1.284       .  A
C208        C369   1.478       .  S
Zr209       O210   2.434       .  S
Zr209       O211   2.434       .  S
Zr209       O215   2.375       .  S
Zr209       O216   2.376       .  S
Zr209       O239   2.383       .  S
Zr209       O241   2.378       .  S
O210        H253   0.990       .  S
O211        H252   0.990       .  S
O211        H256   0.990       .  S
Zr212       O213   2.436       .  S
Zr212       O214   2.434       .  S
Zr212       O216   2.369       .  S
Zr212       O215   2.375       .  S
Zr212       O240   2.382       .  S
Zr212       O242   2.371       .  S
O213        H254   0.990       .  S
O213        H257   0.990       .  S
O214        H247   0.990       .  S
O215       Zr235   2.376       .  S
O216       Zr236   2.373       .  S
O216        H243   0.969       .  S
O217       Zr229   2.453       .  S
O217        C219   1.289       .  A
O218       Zr236   2.403       .  S
O218        C219   1.282       .  A
C219        C337   1.470       .  S
O220       Zr232   2.437       .  S
O220        C222   1.286       .  A
O221       Zr235   2.422       .  S
O221        C222   1.286       .  A
C222        C321   1.473       .  S
O223       Zr232   2.447       .  S
O223        C225   1.288       .  A
O224       Zr236   2.399       .  S
O224        C225   1.281       .  A
C225        C302   1.459       .  S
O226       Zr229   2.452       .  S
O226        C228   1.288       .  A
O227       Zr235   2.403       .  S
O227        C228   1.283       .  A
C228        C353   1.470       .  S
Zr229       O230   2.436       .  S
Zr229       O231   2.434       .  S
Zr229       O237   2.370       .  S
Zr229       O238   2.376       .  S
Zr229       O241   2.378       .  S
Zr229       O239   2.383       .  S
O230        H250   0.990       .  S
O230        H255   0.990       .  S
O231        H251   0.990       .  S
Zr232       O233   2.434       .  S
Zr232       O234   2.435       .  S
Zr232       O238   2.375       .  S
Zr232       O237   2.373       .  S
Zr232       O242   2.370       .  S
Zr232       O240   2.370       .  S
O233        H249   0.990       .  S
O234        H248   0.990       .  S
O234        H258   0.990       .  S
Zr235       O238   2.370       .  S
Zr235       O240   2.376       .  S
Zr235       O241   2.379       .  S
Zr236       O237   2.374       .  S
Zr236       O239   2.376       .  S
Zr236       O242   2.369       .  S
O237        H245   0.965       .  S
O240        H244   0.963       .  S
O241        H246   0.964       .  S
C259        C264   1.407       .  A
C259       C1034   1.404       .  A
C259        C606   1.482       .  S
C260        C261   1.399       .  A
C260       C1033   1.402   1_554  A
C260        H265   1.083       .  S
C261       C1036   1.403   1_554  A
C261        C417   1.482       .  S
C262        C263   1.407       .  A
C262       C1035   1.405       .  A
C262        H266   1.080       .  S
C263        C264   1.408       .  A
C263        C401   1.490       .  S
C264        H267   1.082       .  S
C268        C273   1.404       .  A
C268       C1043   1.410       .  A
C268        C446   1.486       .  S
C269        C270   1.410       .  A
C269       C1042   1.409   1_554  A
C269        H274   1.081       .  S
C270       C1045   1.406   1_554  A
C270        C318   1.489       .  S
C271        C272   1.403       .  A
C271       C1044   1.404       .  A
C271        H275   1.082       .  S
C272        C273   1.400       .  A
C272        C305   1.480       .  S
C273        H276   1.082       .  S
C277        C282   1.410       .  A
C277       C1052   1.408       .  A
C277        C430   1.489       .  S
C278        C279   1.404       .  A
C278       C1051   1.407   1_554  A
C278        H283   1.081       .  S
C279       C1054   1.404   1_554  A
C279        C385   1.491       .  S
C280        C281   1.404       .  A
C280       C1053   1.404       .  A
C280        H284   1.082       .  S
C281        C282   1.405       .  A
C281        C366   1.487       .  S
C282        H285   1.082       .  S
C286        C287   1.408       .  A
C286       C1065   1.406       .  A
C286        C734   1.480       .  S
C287        C288   1.405       .  A
C287        H292   1.083       .  S
C288        C289   1.404       .  A
C288        C334   1.486       .  S
C289       C1064   1.404       .  A
C289        H293   1.080       .  S
C290        C291   1.403       .  A
C290       C1063   1.408   1_554  A
C290        C350   1.491       .  S
C291       C1060   1.403   1_554  A
C291        H294   1.081       .  S
C295        C300   1.388       .  A
C295        C296   1.398       .  A
C295        S301   1.701       .  A
C296        C297   1.399       .  A
C296        H307   1.083       .  S
C297        C306   1.366       .  A
C297        C298   1.386       .  A
C298        C299   1.401       .  A
C298        S304   1.704       .  A
C299        C300   1.401       .  A
C299        H308   1.083       .  S
C300        C303   1.369       .  A
S301        C302   1.721       .  A
C302        C303   1.383       .  A
C303        H309   1.083       .  S
S304        C305   1.726       .  A
C305        C306   1.387       .  A
C306        H310   1.083       .  S
C311        C316   1.386       .  A
C311        C312   1.400       .  A
C311        S317   1.699       .  A
C312        C313   1.400       .  A
C312        H323   1.083       .  S
C313        C322   1.369       .  A
C313        C314   1.387       .  A
C314        C315   1.403       .  A
C314        S320   1.706       .  A
C315        C316   1.403       .  A
C315        H324   1.083       .  S
C316        C319   1.373       .  A
S317        C318   1.729       .  A
C318        C319   1.391       .  A
C319        H325   1.082       .  S
S320        C321   1.725       .  A
C321        C322   1.386       .  A
C322        H326   1.083       .  S
C327        C332   1.385       .  A
C327        C328   1.404       .  A
C327        S333   1.710       .  A
C328        C329   1.405       .  A
C328        H339   1.083       .  S
C329        C338   1.372       .  A
C329        C330   1.387       .  A
C330        C331   1.397       .  A
C330        S336   1.701       .  A
C331        C332   1.399       .  A
C331        H340   1.083       .  S
C332        C335   1.365       .  A
S333        C334   1.728       .  A
C334        C335   1.389       .  A
C335        H341   1.082       .  S
S336        C337   1.723       .  A
C337        C338   1.387       .  A
C338        H342   1.083       .  S
C343        C348   1.385       .  A
C343        C344   1.396       .  A
C343        S349   1.701       .  A
C344        C345   1.398       .  A
C344        H355   1.083       .  S
C345        C354   1.361       .  A
C345        C346   1.386       .  A
C346        C347   1.404       .  A
C346        S352   1.715       .  A
C347        C348   1.407       .  A
C347        H356   1.083       .  S
C348        C351   1.371       .  A
S349        C350   1.726       .  A
C350        C351   1.395       .  A
C351        H357   1.081       .  S
S352        C353   1.724       .  A
C353        C354   1.384       .  A
C354        H358   1.084       .  S
C359        C364   1.385       .  A
C359        C360   1.407       .  A
C359        S365   1.712       .  A
C360        C361   1.407       .  A
C360        H371   1.083       .  S
C361        C370   1.378       .  A
C361        C362   1.387       .  A
C362        C363   1.399       .  A
C362        S368   1.700       .  A
C363        C364   1.399       .  A
C363        H372   1.083       .  S
C364        C367   1.368       .  A
S365        C366   1.728       .  A
C366        C367   1.389       .  A
C367        H373   1.083       .  S
S368        C369   1.725       .  A
C369        C370   1.390       .  A
C370        H374   1.083       .  S
C375        C380   1.386       .  A
C375        C376   1.401       .  A
C375        S381   1.711       .  A
C376        C377   1.403       .  A
C376        H387   1.083       .  S
C377        C386   1.370       .  A
C377        C378   1.385       .  A
C378        C379   1.401       .  A
C378        S384   1.705       .  A
C379        C380   1.402       .  A
C379        H388   1.083       .  S
C380        C383   1.367       .  A
S381        C382   1.721       .  A
C382        C383   1.388       .  A
C383        H389   1.084       .  S
S384        C385   1.729       .  A
C385        C386   1.391       .  A
C386        H390   1.082       .  S
C391        C396   1.386       .  A
C391        C392   1.404       .  A
C391        S397   1.713       .  A
C392        C393   1.405       .  A
C392        H403   1.083       .  S
C393        C402   1.373       .  A
C393        C394   1.385       .  A
C394        C395   1.398       .  A
C394        S400   1.701       .  A
C395        C396   1.400       .  A
C395        H404   1.083       .  S
C396        C399   1.365       .  A
S397        C398   1.722       .  A
C398        C399   1.387       .  A
C399        H405   1.084       .  S
S400        C401   1.728       .  A
C401        C402   1.392       .  A
C402        H406   1.082       .  S
C407        C412   1.387       .  A
C407        C408   1.399       .  A
C407        S413   1.702       .  A
C408        C409   1.400       .  A
C408        H419   1.083       .  S
C409        C418   1.366       .  A
C409        C410   1.386       .  A
C410        C411   1.402       .  A
C410        S416   1.707       .  A
C411        C412   1.403       .  A
C411        H420   1.083       .  S
C412        C415   1.371       .  A
S413        C414   1.724       .  A
C414        C415   1.386       .  A
C415        H421   1.083       .  S
S416        C417   1.727       .  A
C417        C418   1.388       .  A
C418        H422   1.083       .  S
C423        C428   1.385   1_554  A
C423        C424   1.402       .  A
C423        S429   1.704       .  A
C424        C425   1.402       .  A
C424        H435   1.083       .  S
C425        C434   1.372       .  A
C425        C426   1.386   1_554  A
C426        C427   1.402       .  A
C426        S432   1.704       .  A
C427        C428   1.402       .  A
C427        H436   1.083       .  S
C428       C1205   1.372       .  A
S429       C1204   1.729       .  A
C430        C431   1.390       .  A
C430       S1203   1.729       .  A
C431       C1202   1.371       .  A
C431        H437   1.082       .  S
S432       C1207   1.727   1_556  A
C433       C1208   1.391       .  A
C433       S1206   1.728       .  A
C434       C1207   1.389       .  A
C434        H438   1.083       .  S
C439        C444   1.386       .  A
C439        C440   1.402       .  A
C439        S445   1.703       .  A
C440        C441   1.402       .  A
C440        H451   1.083       .  S
C441        C450   1.372       .  A
C441        C442   1.386       .  A
C442        C443   1.402       .  A
C442        S448   1.703       .  A
C443        C444   1.402       .  A
C443        H452   1.083       .  S
C444        C447   1.372       .  A
S445        C446   1.729       .  A
C446        C447   1.389       .  A
C447       H1227   1.082       .  S
S448        C449   1.729       .  A
C449        C450   1.389       .  A
C450        H454   1.082       .  S
H453       C1221   1.083       .  S
C455        C460   1.387       .  A
C455        C456   1.394       .  A
C455        S461   1.694       .  A
C456        C457   1.395       .  A
C456        H467   1.083       .  S
C457        C466   1.362       .  A
C457        C458   1.384       .  A
C458        C459   1.410       .  A
C458        S464   1.717       .  A
C459        C460   1.410       .  A
C459        H468   1.083       .  S
C460        C463   1.380       .  A
S461        C462   1.722       .  A
C462        C463   1.390       .  A
C463        H469   1.083       .  S
S464        C465   1.731       .  A
C465        C466   1.387       .  A
C466        H470   1.083       .  S
C471        C476   1.386       .  A
C471        C472   1.403       .  A
C471        S477   1.710       .  A
C472        C473   1.404       .  A
C472        H483   1.083       .  S
C473        C482   1.372       .  A
C473        C474   1.385       .  A
C474        C475   1.402       .  A
C474        S480   1.705       .  A
C475        C476   1.403       .  A
C475        H484   1.083       .  S
C476        C479   1.371       .  A
S477        C478   1.723       .  A
C478        C479   1.390       .  A
C479        H485   1.083       .  S
S480        C481   1.729       .  A
C481        C482   1.392       .  A
C482        H486   1.082       .  S
C487        C492   1.387       .  A
C487        C488   1.401       .  A
C487        S493   1.703       .  A
C488        C489   1.402       .  A
C488        H499   1.083       .  S
C489        C498   1.371       .  A
C489        C490   1.383       .  A
C490        C491   1.405       .  A
C490        S496   1.707       .  A
C491        C492   1.405       .  A
C491        H500   1.083       .  S
C492        C495   1.377       .  A
S493        C494   1.725       .  A
C494        C495   1.389       .  A
C495        H501   1.083       .  S
S496        C497   1.733       .  A
C497        C498   1.394       .  A
C498        H502   1.080       .  S
C503        C508   1.388       .  A
C503        C504   1.398       .  A
C503        S509   1.694   1_655  A
C504        C505   1.398       .  A
C504        H515   1.083       .  S
C505        C514   1.370       .  A
C505        C506   1.384       .  A
C506        C507   1.405       .  A
C506        S512   1.703       .  A
C507        C508   1.403       .  A
C507        H516   1.083       .  S
C508        C511   1.377       .  A
S509        C510   1.725   1_455  A
C510        C511   1.385       .  A
C511        H517   1.083       .  S
S512        C513   1.734       .  A
C513        C514   1.391       .  A
C514        H518   1.081       .  S
C519        C524   1.388       .  A
C519        C520   1.395       .  A
C519        S525   1.699       .  A
C520        C521   1.397       .  A
C520        H531   1.083       .  S
C521        C530   1.363       .  A
C521        C522   1.385       .  A
C522        C523   1.404       .  A
C522        S528   1.709       .  A
C523        C524   1.405       .  A
C523        H532   1.083       .  S
C524        C527   1.373       .  A
S525        C526   1.721       .  A
C526        C527   1.387       .  A
C527        H533   1.083       .  S
S528        C529   1.730       .  A
C529        C530   1.387       .  A
C530        H534   1.082       .  S
C535        C540   1.385       .  A
C535        C536   1.400       .  A
C535        S541   1.701       .  A
C536        C537   1.401       .  A
C536        H547   1.083       .  S
C537        C546   1.370       .  A
C537        C538   1.386       .  A
C538        C539   1.408       .  A
C538        S544   1.715       .  A
C539        C540   1.408       .  A
C539        H548   1.083       .  S
C540        C543   1.379       .  A
S541        C542   1.730       .  A
C542        C543   1.395       .  A
C543        H549   1.082       .  S
S544        C545   1.727       .  A
C545        C546   1.388       .  A
C546        H550   1.083       .  S
C551        C556   1.389       .  A
C551        C552   1.393       .  A
C551        S557   1.695       .  A
C552        C553   1.395       .  A
C552        H563   1.083       .  S
C553        C562   1.362       .  A
C553        C554   1.385       .  A
C554        C555   1.403       .  A
C554        S560   1.707       .  A
C555        C556   1.403       .  A
C555        H564   1.083       .  S
C556        C559   1.371       .  A
S557        C558   1.716       .  A
C558        C559   1.385       .  A
C559        H565   1.083       .  S
S560        C561   1.729       .  A
C561        C562   1.386       .  A
C562        H566   1.082       .  S
C567        C572   1.387       .  A
C567        C568   1.400       .  A
C567        S573   1.706       .  A
C568        C569   1.401       .  A
C568        H579   1.083       .  S
C569        C578   1.368       .  A
C569        C570   1.385       .  A
C570        C571   1.398       .  A
C570        S576   1.700       .  A
C571        C572   1.399       .  A
C571        H580   1.083       .  S
C572        C575   1.365       .  A
S573        C574   1.723       .  A
C574        C575   1.386       .  A
C575        H581   1.083       .  S
S576        C577   1.727       .  A
C577        C578   1.390       .  A
C578        H582   1.082       .  S
C583        C588   1.386       .  A
C583        C584   1.395       .  A
C583        S589   1.700       .  A
C584        C585   1.398       .  A
C584        H595   1.083       .  S
C585        C594   1.362       .  A
C585        C586   1.384       .  A
C586        C587   1.403       .  A
C586       S1366   1.709       .  A
C587        C588   1.405       .  A
C587        H596   1.083       .  S
C588        C591   1.369       .  A
S589        C590   1.724       .  A
C590        C591   1.391       .  A
C591       H1371   1.082       .  S
S592       C1360   1.711       .  A
S592       C1367   1.727       .  A
C593        C594   1.389       .  A
C593       S1366   1.731       .  A
C594        H598   1.081       .  S
H597       C1365   1.083       .  S
C599        C604   1.387   1_554  A
C599        C600   1.398       .  A
C599        S605   1.702       .  A
C600        C601   1.399       .  A
C600        H611   1.083       .  S
C601        C610   1.367       .  A
C601        C602   1.385   1_554  A
C602        C603   1.402       .  A
C602       S1382   1.704       .  A
C603        C604   1.403       .  A
C603       H1386   1.083       .  S
C604       C1381   1.370       .  A
S605       C1380   1.722   1_554  A
C606        C607   1.388       .  A
C606       S1379   1.726       .  A
C607       C1378   1.372       .  A
C607        H613   1.083       .  S
S608        C609   1.730       .  A
S608       C1376   1.703       .  A
C609       C1384   1.392       .  A
C610       C1383   1.388   1_554  A
C610        H614   1.082       .  S
H612       C1377   1.083       .  S
C615        C620   1.387       .  A
C615        C616   1.394       .  A
C615        S621   1.693       .  A
C616        C617   1.394       .  A
C616        H627   1.083       .  S
C617        C626   1.361       .  A
C617        C618   1.386       .  A
C618        C619   1.404       .  A
C618        S624   1.710       .  A
C619        C620   1.405       .  A
C619        H628   1.083       .  S
C620        C623   1.374       .  A
S621        C622   1.725       .  A
C622        C623   1.389       .  A
C623        H629   1.083       .  S
S624        C625   1.725       .  A
C625        C626   1.383       .  A
C626        H630   1.084       .  S
C631        C636   1.387       .  A
C631        C632   1.403       .  A
C631        S637   1.708       .  A
C632        C633   1.404       .  A
C632        H643   1.083       .  S
C633        C642   1.372       .  A
C633        C634   1.386       .  A
C634        C635   1.394       .  A
C634        S640   1.692       .  A
C635        C636   1.395       .  A
C635        H644   1.083       .  S
C636        C639   1.363       .  A
S637        C638   1.723       .  A
C638        C639   1.381       .  A
C639        H645   1.084       .  S
S640        C641   1.726       .  A
C641        C642   1.390       .  A
C642        H646   1.082       .  S
C647        C652   1.386       .  A
C647        C648   1.398       .  A
C647        S653   1.696       .  A
C648        C649   1.398       .  A
C648        H659   1.083       .  S
C649        C658   1.367       .  A
C649        C650   1.387       .  A
C650        C651   1.405       .  A
C650        S656   1.709       .  A
C651        C652   1.405       .  A
C651        H660   1.083       .  S
C652        C655   1.375       .  A
S653        C654   1.727       .  A
C654        C655   1.390       .  A
C655        H661   1.083       .  S
S656        C657   1.725       .  A
C657        C658   1.384       .  A
C658        H662   1.082       .  S
C663        C668   1.385       .  A
C663        C664   1.398       .  A
C663        S669   1.699       .  A
C664        C665   1.399       .  A
C664        H675   1.083       .  S
C665        C674   1.366       .  A
C665        C666   1.387       .  A
C666        C667   1.404       .  A
C666        S672   1.710       .  A
C667        C668   1.405       .  A
C667        H676   1.083       .  S
C668        C671   1.373       .  A
S669        C670   1.728       .  A
C670        C671   1.393       .  A
C671        H677   1.082       .  S
S672        C673   1.725       .  A
C673        C674   1.385       .  A
C674        H678   1.083       .  S
C679        C684   1.387   1_554  A
C679        C680   1.397       .  A
C679        S685   1.698       .  A
C680        C681   1.398       .  A
C680        H691   1.083       .  S
C681        C690   1.366       .  A
C681        C682   1.386   1_554  A
C682        C683   1.406       .  A
C682       S1462   1.709       .  A
C683        C684   1.406       .  A
C683       H1466   1.083       .  S
C684       C1461   1.377       .  A
S685       C1460   1.724       .  A
C686        C687   1.386       .  A
C686       S1459   1.722       .  A
C687       C1458   1.373       .  A
C687        H693   1.083       .  S
S688        C689   1.728       .  A
S688       C1456   1.707       .  A
C689       C1464   1.384       .  A
C690       C1463   1.386       .  A
C690        H694   1.083       .  S
H692       C1457   1.083       .  S
C695        C700   1.388       .  A
C695        C696   1.398       .  A
C695        S701   1.698   1_565  A
C696        C697   1.399       .  A
C696        H707   1.083       .  S
C697        C706   1.367       .  A
C697        C698   1.384       .  A
C698        C699   1.404       .  A
C698        S704   1.705       .  A
C699        C700   1.404       .  A
C699        H708   1.083       .  S
C700        C703   1.375       .  A
S701        C702   1.723   1_545  A
C702        C703   1.386       .  A
C703        H709   1.083       .  S
S704        C705   1.733       .  A
C705        C706   1.392       .  A
C706        H710   1.080       .  S
C711        C716   1.386       .  A
C711        C712   1.399       .  A
C711        S717   1.705       .  A
C712        C713   1.401       .  A
C712        H723   1.083       .  S
C713        C722   1.367       .  A
C713        C714   1.386       .  A
C714        C715   1.405       .  A
C714        S720   1.714       .  A
C715        C716   1.407       .  A
C715        H724   1.083       .  S
C716        C719   1.373       .  A
S717        C718   1.726       .  A
C718        C719   1.392       .  A
C719        H725   1.082       .  S
S720        C721   1.727       .  A
C721        C722   1.387       .  A
C722        H726   1.083       .  S
C727        C732   1.386       .  A
C727        C728   1.400       .  A
C727        S733   1.702       .  A
C728        C729   1.401       .  A
C728        H739   1.083       .  S
C729        C738   1.369       .  A
C729        C730   1.384       .  A
C730        C731   1.401       .  A
C730        S736   1.702       .  A
C731        C732   1.402       .  A
C731        H740   1.083       .  S
C732        C735   1.370       .  A
S733        C734   1.726       .  A
C734        C735   1.388       .  A
C735        H741   1.083       .  S
S736        C737   1.730       .  A
C737        C738   1.392       .  A
C738        H742   1.081       .  S
C743        C748   1.386       .  A
C743        C744   1.395       .  A
C743        S749   1.692       .  A
C744        C745   1.395       .  A
C744        H755   1.083       .  S
C745        C754   1.365       .  A
C745        C746   1.387       .  A
C746        C747   1.407       .  A
C746        S752   1.710       .  A
C747        C748   1.406       .  A
C747        H756   1.083       .  S
C748        C751   1.377       .  A
S749        C750   1.726       .  A
C750        C751   1.392       .  A
C751        H757   1.083       .  S
S752        C753   1.726       .  A
C753        C754   1.382       .  A
C754        H758   1.083       .  S
C759        C764   1.387       .  A
C759        C760   1.401       .  A
C759        S765   1.708       .  A
C760        C761   1.403       .  A
C760        H771   1.083       .  S
C761        C770   1.370       .  A
C761        C762   1.385       .  A
C762        C763   1.397       .  A
C762        S768   1.698       .  A
C763        C764   1.398       .  A
C763        H772   1.083       .  S
C764        C767   1.364       .  A
S765        C766   1.722       .  A
C766        C767   1.386       .  A
C767        H773   1.084       .  S
S768        C769   1.729       .  A
C769        C770   1.391       .  A
C770        H774   1.082       .  S
C775        C780   1.411       .  A
C775       C1511   1.488       .  S
C776        C777   1.401       .  A
C776        H781   1.081       .  S
C777        C778   1.398       .  A
C777       C1524   1.476       .  S
C778        H782   1.081       .  S
C779        C780   1.401       .  A
C779       C1543   1.486       .  S
C780        H783   1.081       .  S
C784        C785   1.408   1_554  A
C784       C1460   1.481       .  S
C785        C786   1.410       .  A
C785        H790   1.083       .  S
C786        C787   1.408   1_556  A
C786       C1492   1.493       .  S
C787        H791   1.077       .  S
C788        C789   1.398       .  A
C788       C1479   1.491       .  S
C789        H792   1.082       .  S
O793       Zr805   2.450       .  S
O793        C795   1.289       .  A
O794       Zr831   2.424   1_565  S
O794        C795   1.288       .  A
C795       C1495   1.478       .  S
O796       Zr808   2.440       .  S
O796        C798   1.287       .  A
O797       Zr832   2.423   1_565  S
O797        C798   1.286       .  A
C798       C1527   1.470       .  S
O799       Zr808   2.445       .  S
O799        C801   1.287       .  A
O800       Zr831   2.418   1_565  S
O800        C801   1.286       .  A
C801       C1540   1.472       .  S
O802       Zr805   2.459       .  S
O802        C804   1.290       .  A
O803       Zr832   2.386   1_565  S
O803        C804   1.280       .  A
C804       C1476   1.464       .  S
Zr805       O806   2.433       .  S
Zr805       O807   2.437       .  S
Zr805       O811   2.377       .  S
Zr805       O812   2.379       .  S
Zr805       O835   2.369   1_565  S
Zr805       O837   2.378   1_565  S
O806        H849   0.990       .  S
O807        H848   0.990   1_565  S
O807        H852   0.990       .  S
Zr808       O809   2.434       .  S
Zr808       O810   2.435       .  S
Zr808       O812   2.378       .  S
Zr808       O811   2.373       .  S
Zr808       O836   2.376   1_565  S
Zr808       O838   2.373   1_565  S
O809        H850   0.990       .  S
O809        H853   0.990       .  S
O810        H843   0.990       .  S
O811       Zr831   2.376   1_565  S
O812       Zr832   2.381   1_565  S
O812        H839   0.965       .  S
O813       Zr825   2.445       .  S
O813        C815   1.287       .  A
O814       Zr832   2.419       .  S
O814        C815   1.286       .  A
C815       C1431   1.472       .  S
O816       Zr828   2.450       .  S
O816        C818   1.289       .  A
O817       Zr831   2.416       .  S
O817        C818   1.286       .  A
C818       C1412   1.470       .  S
O819       Zr828   2.445       .  S
O819        C821   1.288       .  A
O820       Zr832   2.409       .  S
O820        C821   1.284       .  A
C821       C1399   1.469       .  S
O822       Zr825   2.427       .  S
O822        C824   1.284       .  A
O823       Zr831   2.424       .  S
O823        C824   1.287       .  A
C824       C1447   1.466       .  S
Zr825       O826   2.434       .  S
Zr825       O827   2.434       .  S
Zr825       O833   2.370       .  S
Zr825       O834   2.372       .  S
Zr825       O837   2.380       .  S
Zr825       O835   2.363       .  S
O826        H846   0.990       .  S
O826        H851   0.990       .  S
O827        H847   0.990       .  S
Zr828       O829   2.435       .  S
Zr828       O830   2.435       .  S
Zr828       O834   2.371       .  S
Zr828       O833   2.372       .  S
Zr828       O838   2.373       .  S
Zr828       O836   2.372       .  S
O829        H845   0.990       .  S
O830        H844   0.990       .  S
O830        H854   0.990       .  S
Zr831       O834   2.376       .  S
Zr831       O836   2.380       .  S
Zr831       O837   2.383       .  S
Zr832       O833   2.376       .  S
Zr832       O835   2.371       .  S
Zr832       O838   2.371       .  S
O833        H841   0.968       .  S
O836        H840   0.967       .  S
O837        H842   0.966       .  S
C855        C860   1.409       .  A
C855       C1383   1.486       .  S
C856        C857   1.403       .  A
C856        H861   1.081       .  S
C857        C858   1.401       .  A
C857       C1428   1.483       .  S
C858        H862   1.081       .  S
C859        C860   1.401       .  A
C859       C1444   1.480       .  S
C860        H863   1.082       .  S
C864        C865   1.412       .  A
C864       C1364   1.483       .  S
C865        C866   1.409       .  A
C865        H870   1.082       .  S
C866        C867   1.401       .  A
C866       C1415   1.492       .  S
C867        H871   1.080       .  S
C868        C869   1.401       .  A
C868       C1396   1.477       .  S
C869        H872   1.082       .  S
O873       Zr885   2.461       .  S
O873        C875   1.291       .  A
O874       Zr911   2.409       .  S
O874        C875   1.284       .  A
C875       C1319   1.477       .  S
O876       Zr888   2.459       .  S
O876        C878   1.290       .  A
O877       Zr912   2.403       .  S
O877        C878   1.282       .  A
C878       C1332   1.467       .  S
O879       Zr888   2.448       .  S
O879        C881   1.289       .  A
O880       Zr911   2.411       .  S
O880        C881   1.284       .  A
C881       C1348   1.472       .  S
O882       Zr885   2.455       .  S
O882        C884   1.289       .  A
O883       Zr912   2.407       .  S
O883        C884   1.284       .  A
C884       C1300   1.469       .  S
Zr885       O886   2.434       .  S
Zr885       O887   2.435       .  S
Zr885       O891   2.378       .  S
Zr885       O892   2.375       .  S
Zr885       O915   2.381       .  S
Zr885       O917   2.371       .  S
O886        H929   0.990       .  S
O887        H928   0.990       .  S
O887        H932   0.990       .  S
Zr888       O889   2.436       .  S
Zr888       O890   2.434       .  S
Zr888       O892   2.369       .  S
Zr888       O891   2.377       .  S
Zr888       O916   2.377       .  S
Zr888       O918   2.375       .  S
O889        H930   0.990       .  S
O889        H933   0.990       .  S
O890        H923   0.990       .  S
O891       Zr911   2.372       .  S
O892       Zr912   2.371       .  S
O892        H919   0.966       .  S
O893       Zr905   2.482       .  S
O893        C895   1.295       .  A
O894       Zr912   2.402       .  S
O894        C895   1.283   1_455  A
C895       C1268   1.482       .  S
O896       Zr908   2.451       .  S
O896        C898   1.289       .  A
O897       Zr911   2.419   1_655  S
O897        C898   1.286       .  A
C898       C1252   1.476       .  S
O899       Zr908   2.461       .  S
O899        C901   1.290       .  A
O900       Zr912   2.400   1_655  S
O900        C901   1.283       .  A
C901       C1236   1.471       .  S
O902       Zr905   2.473       .  S
O902        C904   1.293       .  A
O903       Zr911   2.397       .  S
O903        C904   1.281   1_455  A
C904       C1284   1.469       .  S
Zr905       O906   2.435       .  S
Zr905       O907   2.433   1_655  S
Zr905       O913   2.373       .  S
Zr905       O914   2.385       .  S
Zr905       O917   2.379   1_655  S
Zr905       O915   2.382   1_655  S
O906        H926   0.990       .  S
O906        H931   0.990       .  S
O907        H927   0.990       .  S
Zr908       O909   2.436       .  S
Zr908       O910   2.435       .  S
Zr908       O914   2.379       .  S
Zr908       O913   2.372       .  S
Zr908       O918   2.377   1_655  S
Zr908       O916   2.377   1_655  S
O909        H925   0.990       .  S
O910        H924   0.990       .  S
O910        H934   0.990       .  S
Zr911       O914   2.378   1_455  S
Zr911       O916   2.375       .  S
Zr911       O917   2.380       .  S
Zr912       O913   2.374   1_455  S
Zr912       O915   2.371       .  S
Zr912       O918   2.368       .  S
O913        H921   0.966       .  S
O916        H920   0.966       .  S
O917        H922   0.966       .  S
C935        C940   1.411   1_554  A
C935       C1223   1.485       .  S
C936        C937   1.399       .  A
C936        H941   1.082       .  S
C937        C938   1.405       .  A
C937       C1303   1.486       .  S
C938        H942   1.080       .  S
C939        C940   1.408       .  A
C939       C1316   1.492       .  S
C940        H943   1.081       .  S
C944        C945   1.401   1_554  A
C944       C1367   1.486       .  S
C945        C946   1.401       .  A
C945        H950   1.081       .  S
C946        C947   1.408   1_556  A
C946       C1287   1.491       .  S
C948        C949   1.407       .  A
C948       C1271   1.498       .  S
C949        H952   1.081       .  S
C953        C958   1.408   1_554  A
C953       C1207   1.484       .  S
C954        C955   1.405       .  A
C954        H959   1.082       .  S
C955        C956   1.407       .  A
C955       C1239   1.487       .  S
C956        H960   1.081       .  S
C957        C958   1.405       .  A
C957       C1255   1.495       .  S
C958        H961   1.080       .  S
C962        C963   1.404   1_554  A
C962       C1463   1.481       .  S
C963        C964   1.407       .  A
C963        H968   1.081       .  S
C964        C965   1.403   1_556  A
C964       C1351   1.488       .  S
C965        H969   1.080       .  S
C966        C967   1.403       .  A
C966       C1335   1.486       .  S
C967        H970   1.082       .  S
O971       Zr983   2.458       .  S
O971        C973   1.290       .  A
O972      Zr1009   2.407       .  S
O972        C973   1.284       .  A
C973       C1156   1.473       .  S
O974       Zr986   2.456       .  S
O974        C976   1.289       .  A
O975      Zr1010   2.402       .  S
O975        C976   1.283       .  A
C976       C1172   1.469       .  S
O977       Zr986   2.460       .  S
O977        C979   1.291       .  A
O978      Zr1009   2.403       .  S
O978        C979   1.282       .  A
C979       C1188   1.474       .  S
O980       Zr983   2.472       .  S
O980        C982   1.292       .  A
O981      Zr1010   2.407       .  S
O981        C982   1.283       .  A
C982       C1143   1.481       .  S
Zr983       O984   2.434       .  S
Zr983       O985   2.434       .  S
Zr983       O989   2.378       .  S
Zr983       O990   2.372       .  S
Zr983      O1013   2.377       .  S
Zr983      O1015   2.383       .  S
O984       H1027   0.990       .  S
O985       H1026   0.990       .  S
O985       H1030   0.990       .  S
Zr986       O987   2.436       .  S
Zr986       O988   2.436       .  S
Zr986       O990   2.376       .  S
Zr986       O989   2.371       .  S
Zr986      O1014   2.379       .  S
Zr986      O1016   2.378       .  S
O987       H1028   0.990       .  S
O987       H1031   0.990       .  S
O988       H1021   0.990       .  S
O989      Zr1009   2.374       .  S
O990      Zr1010   2.372       .  S
O990       H1017   0.969       .  S
O991      Zr1003   2.458       .  S
O991        C993   1.290       .  A
O992      Zr1010   2.416       .  S
O992        C993   1.285       .  A
C993       C1111   1.478       .  S
O994      Zr1006   2.452       .  S
O994        C996   1.289       .  A
O995      Zr1009   2.419       .  S
O995        C996   1.286       .  A
C996       C1095   1.477       .  S
O997      Zr1006   2.461       .  S
O997        C999   1.290       .  A
O998      Zr1010   2.389       .  S
O998        C999   1.280       .  A
C999       C1076   1.463       .  S
O1000     Zr1003   2.456       .  S
O1000      C1002   1.289       .  A
O1001     Zr1009   2.403       .  S
O1001      C1002   1.283       .  A
C1002      C1127   1.471       .  S
Zr1003     O1004   2.436       .  S
Zr1003     O1005   2.435       .  S
Zr1003     O1011   2.375       .  S
Zr1003     O1012   2.373       .  S
Zr1003     O1015   2.383       .  S
Zr1003     O1013   2.386       .  S
O1004      H1024   0.990       .  S
O1004      H1029   0.990       .  S
O1005      H1025   0.990       .  S
Zr1006     O1007   2.435       .  S
Zr1006     O1008   2.434       .  S
Zr1006     O1012   2.376       .  S
Zr1006     O1011   2.374       .  S
Zr1006     O1016   2.373       .  S
Zr1006     O1014   2.380       .  S
O1007      H1023   0.990       .  S
O1008      H1022   0.990       .  S
O1008      H1032   0.990       .  S
Zr1009     O1012   2.373       .  S
Zr1009     O1014   2.380       .  S
Zr1009     O1015   2.380       .  S
Zr1010     O1011   2.376       .  S
Zr1010     O1013   2.371       .  S
Zr1010     O1016   2.375       .  S
O1011      H1019   0.966       .  S
O1014      H1018   0.964       .  S
O1015      H1020   0.968       .  S
C1033      C1038   1.405       .  A
C1033      C1380   1.474       .  S
C1034      C1035   1.402       .  A
C1034      H1039   1.082       .  S
C1035      C1191   1.488       .  S
C1036      C1037   1.408       .  A
C1036      H1040   1.080       .  S
C1037      C1038   1.407       .  A
C1037      C1175   1.491       .  S
C1038      H1041   1.081       .  S
C1042      C1047   1.402       .  A
C1042      C1220   1.482       .  S
C1043      C1044   1.408       .  A
C1043      H1048   1.082       .  S
C1044      C1092   1.485       .  S
C1045      C1046   1.402       .  A
C1045      H1049   1.081       .  S
C1046      C1047   1.397       .  A
C1046      C1079   1.481       .  S
C1047      H1050   1.082       .  S
C1051      C1056   1.410       .  A
C1051      C1204   1.489   1_556  S
C1052      C1053   1.405       .  A
C1052      H1057   1.082       .  S
C1053      C1159   1.487       .  S
C1054      C1055   1.408       .  A
C1054      H1058   1.080       .  S
C1055      C1056   1.407       .  A
C1055      C1140   1.492       .  S
C1056      H1059   1.081       .  S
C1060      C1061   1.406       .  A
C1060      C1508   1.480       .  S
C1061      C1062   1.404       .  A
C1061      H1066   1.083       .  S
C1062      C1063   1.407       .  A
C1062      C1108   1.488       .  S
C1063      H1067   1.080       .  S
C1064      C1065   1.401       .  A
C1064      C1124   1.487       .  S
C1065      H1068   1.082       .  S
C1069      C1074   1.388       .  A
C1069      C1070   1.397       .  A
C1069      S1075   1.698       .  A
C1070      C1071   1.397       .  A
C1070      H1081   1.083       .  S
C1071      C1080   1.365       .  A
C1071      C1072   1.386       .  A
C1072      C1073   1.402       .  A
C1072      S1078   1.705       .  A
C1073      C1074   1.403       .  A
C1073      H1082   1.083       .  S
C1074      C1077   1.372       .  A
S1075      C1076   1.722       .  A
C1076      C1077   1.385       .  A
C1077      H1083   1.083       .  S
S1078      C1079   1.728       .  A
C1079      C1080   1.386       .  A
C1080      H1084   1.082       .  S
C1085      C1090   1.386       .  A
C1085      C1086   1.400       .  A
C1085      S1091   1.702       .  A
C1086      C1087   1.400       .  A
C1086      H1097   1.083       .  S
C1087      C1096   1.369       .  A
C1087      C1088   1.386       .  A
C1088      C1089   1.405       .  A
C1088      S1094   1.711       .  A
C1089      C1090   1.405       .  A
C1089      H1098   1.083       .  S
C1090      C1093   1.374       .  A
S1091      C1092   1.727       .  A
C1092      C1093   1.391       .  A
C1093      H1099   1.083       .  S
S1094      C1095   1.726       .  A
C1095      C1096   1.387       .  A
C1096      H1100   1.083       .  S
C1101      C1106   1.385       .  A
C1101      C1102   1.408       .  A
C1101      S1107   1.712       .  A
C1102      C1103   1.408       .  A
C1102      H1113   1.083       .  S
C1103      C1112   1.378       .  A
C1103      C1104   1.387       .  A
C1104      C1105   1.398       .  A
C1104      S1110   1.700       .  A
C1105      C1106   1.398       .  A
C1105      H1114   1.083       .  S
C1106      C1109   1.368       .  A
S1107      C1108   1.730       .  A
C1108      C1109   1.388       .  A
C1109      H1115   1.082       .  S
S1110      C1111   1.723       .  A
C1111      C1112   1.392       .  A
C1112      H1116   1.083       .  S
C1117      C1122   1.386       .  A
C1117      C1118   1.394       .  A
C1117      S1123   1.697       .  A
C1118      C1119   1.396       .  A
C1118      H1129   1.083       .  S
C1119      C1128   1.363       .  A
C1119      C1120   1.386       .  A
C1120      C1121   1.406       .  A
C1120      S1126   1.714       .  A
C1121      C1122   1.408       .  A
C1121      H1130   1.083       .  S
C1122      C1125   1.374       .  A
S1123      C1124   1.724       .  A
C1124      C1125   1.394       .  A
C1125      H1131   1.082       .  S
S1126      C1127   1.726       .  A
C1127      C1128   1.384       .  A
C1128      H1132   1.084       .  S
C1133      C1138   1.384       .  A
C1133      C1134   1.409       .  A
C1133      S1139   1.713       .  A
C1134      C1135   1.409       .  A
C1134      H1145   1.083       .  S
C1135      C1144   1.380       .  A
C1135      C1136   1.387       .  A
C1136      C1137   1.398       .  A
C1136      S1142   1.699       .  A
C1137      C1138   1.398       .  A
C1137      H1146   1.083       .  S
C1138      C1141   1.367       .  A
S1139      C1140   1.732       .  A
C1140      C1141   1.389       .  A
C1141      H1147   1.082       .  S
S1142      C1143   1.724       .  A
C1143      C1144   1.392       .  A
C1144      H1148   1.083       .  S
C1149      C1154   1.386       .  A
C1149      C1150   1.404       .  A
C1149      S1155   1.713       .  A
C1150      C1151   1.406       .  A
C1150      H1161   1.083       .  S
C1151      C1160   1.373       .  A
C1151      C1152   1.386       .  A
C1152      C1153   1.398       .  A
C1152      S1158   1.702       .  A
C1153      C1154   1.399       .  A
C1153      H1162   1.083       .  S
C1154      C1157   1.366       .  A
S1155      C1156   1.725       .  A
C1156      C1157   1.386       .  A
C1157      H1163   1.083       .  S
S1158      C1159   1.726       .  A
C1159      C1160   1.392       .  A
C1160      H1164   1.082       .  S
C1165      C1170   1.386       .  A
C1165      C1166   1.405       .  A
C1165      S1171   1.713       .  A
C1166      C1167   1.406       .  A
C1166      H1177   1.083       .  S
C1167      C1176   1.373       .  A
C1167      C1168   1.385       .  A
C1168      C1169   1.395       .  A
C1168      S1174   1.696       .  A
C1169      C1170   1.397       .  A
C1169      H1178   1.083       .  S
C1170      C1173   1.362       .  A
S1171      C1172   1.724       .  A
C1172      C1173   1.384       .  A
C1173      H1179   1.084       .  S
S1174      C1175   1.727       .  A
C1175      C1176   1.394       .  A
C1176      H1180   1.081       .  S
C1181      C1186   1.387       .  A
C1181      C1182   1.399       .  A
C1181      S1187   1.701       .  A
C1182      C1183   1.400       .  A
C1182      H1193   1.083       .  S
C1183      C1192   1.368       .  A
C1183      C1184   1.385       .  A
C1184      C1185   1.404       .  A
C1184      S1190   1.708       .  A
C1185      C1186   1.404       .  A
C1185      H1194   1.083       .  S
C1186      C1189   1.375       .  A
S1187      C1188   1.725       .  A
C1188      C1189   1.388       .  A
C1189      H1195   1.083       .  S
S1190      C1191   1.729       .  A
C1191      C1192   1.390       .  A
C1192      H1196   1.082       .  S
C1197      C1202   1.385       .  A
C1197      C1198   1.403       .  A
C1197      S1203   1.707       .  A
C1198      C1199   1.404       .  A
C1198      H1209   1.083       .  S
C1199      C1208   1.372       .  A
C1199      C1200   1.385       .  A
C1200      C1201   1.401       .  A
C1200      S1206   1.704       .  A
C1201      C1202   1.402       .  A
C1201      H1210   1.083       .  S
C1204      C1205   1.391   1_554  A
C1205      H1211   1.082       .  S
C1208      H1212   1.082       .  S
C1213      C1218   1.386   1_556  A
C1213      C1214   1.399       .  A
C1213      S1219   1.698       .  A
C1214      C1215   1.399       .  A
C1214      H1225   1.083       .  S
C1215      C1224   1.369       .  A
C1215      C1216   1.386   1_556  A
C1216      C1217   1.402       .  A
C1216      S1222   1.703       .  A
C1217      C1218   1.402       .  A
C1217      H1226   1.083       .  S
C1218      C1221   1.372       .  A
S1219      C1220   1.727       .  A
C1220      C1221   1.389   1_556  A
S1222      C1223   1.729       .  A
C1223      C1224   1.388   1_554  A
C1224      H1228   1.082       .  S
C1229      C1234   1.388       .  A
C1229      C1230   1.393       .  A
C1229      S1235   1.694       .  A
C1230      C1231   1.394       .  A
C1230      H1241   1.083       .  S
C1231      C1240   1.363       .  A
C1231      C1232   1.385       .  A
C1232      C1233   1.409       .  A
C1232      S1238   1.715       .  A
C1233      C1234   1.409       .  A
C1233      H1242   1.083       .  S
C1234      C1237   1.379       .  A
S1235      C1236   1.720       .  A
C1236      C1237   1.391       .  A
C1237      H1243   1.083       .  S
S1238      C1239   1.731       .  A
C1239      C1240   1.385       .  A
C1240      H1244   1.082       .  S
C1245      C1250   1.386       .  A
C1245      C1246   1.405       .  A
C1245      S1251   1.711       .  A
C1246      C1247   1.406       .  A
C1246      H1257   1.083       .  S
C1247      C1256   1.375       .  A
C1247      C1248   1.384       .  A
C1248      C1249   1.398       .  A
C1248      S1254   1.696       .  A
C1249      C1250   1.398       .  A
C1249      H1258   1.083       .  S
C1250      C1253   1.368       .  A
S1251      C1252   1.726       .  A
C1252      C1253   1.386       .  A
C1253      H1259   1.083       .  S
S1254      C1255   1.730       .  A
C1255      C1256   1.395       .  A
C1256      H1260   1.081       .  S
C1261      C1266   1.387       .  A
C1261      C1262   1.400       .  A
C1261      S1267   1.699       .  A
C1262      C1263   1.399       .  A
C1262      H1273   1.083       .  S
C1263      C1272   1.371       .  A
C1263      C1264   1.384       .  A
C1264      C1265   1.408       .  A
C1264      S1270   1.708       .  A
C1265      C1266   1.407       .  A
C1265      H1274   1.083       .  S
C1266      C1269   1.381       .  A
S1267      C1268   1.727       .  A
C1268      C1269   1.391       .  A
C1269      H1275   1.083       .  S
S1270      C1271   1.734       .  A
C1271      C1272   1.392       .  A
C1272      H1276   1.081       .  S
C1277      C1282   1.388       .  A
C1277      C1278   1.402       .  A
C1277      S1283   1.701   1_655  A
C1278      C1279   1.402       .  A
C1278      H1289   1.083       .  S
C1279      C1288   1.373       .  A
C1279      C1280   1.385       .  A
C1280      C1281   1.402       .  A
C1280      S1286   1.702       .  A
C1281      C1282   1.402       .  A
C1281      H1290   1.083       .  S
C1282      C1285   1.375       .  A
S1283      C1284   1.725   1_455  A
C1284      C1285   1.385       .  A
C1285      H1291   1.083       .  S
S1286      C1287   1.730       .  A
C1287      C1288   1.391       .  A
C1288      H1292   1.082       .  S
C1293      C1298   1.388       .  A
C1293      C1294   1.396       .  A
C1293      S1299   1.698       .  A
C1294      C1295   1.397       .  A
C1294      H1305   1.083       .  S
C1295      C1304   1.365       .  A
C1295      C1296   1.385       .  A
C1296      C1297   1.406       .  A
C1296      S1302   1.710       .  A
C1297      C1298   1.406       .  A
C1297      H1306   1.083       .  S
C1298      C1301   1.375       .  A
S1299      C1300   1.721       .  A
C1300      C1301   1.388       .  A
C1301      H1307   1.083       .  S
S1302      C1303   1.730       .  A
C1303      C1304   1.387       .  A
C1304      H1308   1.082       .  S
C1309      C1314   1.385       .  A
C1309      C1310   1.398       .  A
C1309      S1315   1.700       .  A
C1310      C1311   1.399       .  A
C1310      H1321   1.083       .  S
C1311      C1320   1.366       .  A
C1311      C1312   1.386       .  A
C1312      C1313   1.406       .  A
C1312      S1318   1.714       .  A
C1313      C1314   1.407       .  A
C1313      H1322   1.083       .  S
C1314      C1317   1.376       .  A
S1315      C1316   1.728       .  A
C1316      C1317   1.394       .  A
C1317      H1323   1.082       .  S
S1318      C1319   1.726       .  A
C1319      C1320   1.387       .  A
C1320      H1324   1.083       .  S
C1325      C1330   1.388       .  A
C1325      C1326   1.396       .  A
C1325      S1331   1.699       .  A
C1326      C1327   1.397       .  A
C1326      H1337   1.083       .  S
C1327      C1336   1.365       .  A
C1327      C1328   1.385       .  A
C1328      C1329   1.406       .  A
C1328      S1334   1.710       .  A
C1329      C1330   1.406       .  A
C1329      H1338   1.083       .  S
C1330      C1333   1.376       .  A
S1331      C1332   1.720       .  A
C1332      C1333   1.388       .  A
C1333      H1339   1.083       .  S
S1334      C1335   1.730       .  A
C1335      C1336   1.387       .  A
C1336      H1340   1.082       .  S
C1341      C1346   1.386       .  A
C1341      C1342   1.401       .  A
C1341      S1347   1.708       .  A
C1342      C1343   1.402       .  A
C1342      H1353   1.083       .  S
C1343      C1352   1.369       .  A
C1343      C1344   1.385       .  A
C1344      C1345   1.399       .  A
C1344      S1350   1.702       .  A
C1345      C1346   1.401       .  A
C1345      H1354   1.083       .  S
C1346      C1349   1.366       .  A
S1347      C1348   1.724       .  A
C1348      C1349   1.387       .  A
C1349      H1355   1.083       .  S
S1350      C1351   1.729       .  A
C1351      C1352   1.390       .  A
C1352      H1356   1.082       .  S
C1357      C1362   1.386   1_556  A
C1357      C1358   1.400       .  A
C1357      S1363   1.706       .  A
C1358      C1359   1.402       .  A
C1358      H1369   1.083       .  S
C1359      C1368   1.368       .  A
C1359      C1360   1.385   1_556  A
C1360      C1361   1.404       .  A
C1361      C1362   1.405       .  A
C1361      H1370   1.083       .  S
C1362      C1365   1.372       .  A
S1363      C1364   1.724       .  A
C1364      C1365   1.391   1_556  A
C1367      C1368   1.390   1_554  A
C1368      H1372   1.083       .  S
C1373      C1378   1.386       .  A
C1373      C1374   1.401       .  A
C1373      S1379   1.704       .  A
C1374      C1375   1.402       .  A
C1374      H1385   1.083       .  S
C1375      C1384   1.371       .  A
C1375      C1376   1.385       .  A
C1376      C1377   1.402       .  A
C1377      C1378   1.403       .  A
C1380      C1381   1.387       .  A
C1381      H1387   1.083       .  S
S1382      C1383   1.730       .  A
C1384      H1388   1.081       .  S
C1389      C1394   1.387       .  A
C1389      C1390   1.396       .  A
C1389      S1395   1.696       .  A
C1390      C1391   1.397       .  A
C1390      H1401   1.083       .  S
C1391      C1400   1.365       .  A
C1391      C1392   1.387       .  A
C1392      C1393   1.402       .  A
C1392      S1398   1.707       .  A
C1393      C1394   1.402       .  A
C1393      H1402   1.083       .  S
C1394      C1397   1.371       .  A
S1395      C1396   1.725       .  A
C1396      C1397   1.387       .  A
C1397      H1403   1.083       .  S
S1398      C1399   1.724       .  A
C1399      C1400   1.385       .  A
C1400      H1404   1.083       .  S
C1405      C1410   1.387       .  A
C1405      C1406   1.406       .  A
C1405      S1411   1.712       .  A
C1406      C1407   1.406       .  A
C1406      H1417   1.083       .  S
C1407      C1416   1.376       .  A
C1407      C1408   1.385       .  A
C1408      C1409   1.397       .  A
C1408      S1414   1.695       .  A
C1409      C1410   1.398       .  A
C1409      H1418   1.083       .  S
C1410      C1413   1.366       .  A
S1411      C1412   1.725       .  A
C1412      C1413   1.384       .  A
C1413      H1419   1.084       .  S
S1414      C1415   1.730       .  A
C1415      C1416   1.393       .  A
C1416      H1420   1.082       .  S
C1421      C1426   1.387       .  A
C1421      C1422   1.397       .  A
C1421      S1427   1.700       .  A
C1422      C1423   1.398       .  A
C1422      H1433   1.083       .  S
C1423      C1432   1.364       .  A
C1423      C1424   1.386       .  A
C1424      C1425   1.405       .  A
C1424      S1430   1.713       .  A
C1425      C1426   1.406       .  A
C1425      H1434   1.083       .  S
C1426      C1429   1.374       .  A
S1427      C1428   1.725       .  A
C1428      C1429   1.390       .  A
C1429      H1435   1.083       .  S
S1430      C1431   1.726       .  A
C1431      C1432   1.383       .  A
C1432      H1436   1.081       .  S
C1437      C1442   1.387       .  A
C1437      C1438   1.395       .  A
C1437      S1443   1.695       .  A
C1438      C1439   1.396       .  A
C1438      H1449   1.083       .  S
C1439      C1448   1.365       .  A
C1439      C1440   1.387       .  A
C1440      C1441   1.403       .  A
C1440      S1446   1.706       .  A
C1441      C1442   1.404       .  A
C1441      H1450   1.083       .  S
C1442      C1445   1.372       .  A
S1443      C1444   1.725       .  A
C1444      C1445   1.390       .  A
C1445      H1451   1.083       .  S
S1446      C1447   1.725       .  A
C1447      C1448   1.382       .  A
C1448      H1452   1.083       .  S
C1453      C1458   1.388       .  A
C1453      C1454   1.395       .  A
C1453      S1459   1.694       .  A
C1454      C1455   1.395       .  A
C1454      H1465   1.083       .  S
C1455      C1464   1.364       .  A
C1455      C1456   1.386       .  A
C1456      C1457   1.404       .  A
C1457      C1458   1.404       .  A
C1460      C1461   1.390   1_554  A
C1461      H1467   1.083       .  S
S1462      C1463   1.728   1_556  A
C1464      H1468   1.083       .  S
C1469      C1474   1.388       .  A
C1469      C1470   1.396       .  A
C1469      S1475   1.690   1_565  A
C1470      C1471   1.395       .  A
C1470      H1481   1.083       .  S
C1471      C1480   1.369       .  A
C1471      C1472   1.385       .  A
C1472      C1473   1.404       .  A
C1472      S1478   1.698       .  A
C1473      C1474   1.402       .  A
C1473      H1482   1.083       .  S
C1474      C1477   1.376       .  A
S1475      C1476   1.720   1_545  A
C1476      C1477   1.385       .  A
C1477      H1483   1.083       .  S
S1478      C1479   1.734       .  A
C1479      C1480   1.388       .  A
C1480      H1484   1.081       .  S
C1485      C1490   1.386       .  A
C1485      C1486   1.399       .  A
C1485      S1491   1.699       .  A
C1486      C1487   1.399       .  A
C1486      H1497   1.083       .  S
C1487      C1496   1.369       .  A
C1487      C1488   1.386       .  A
C1488      C1489   1.407       .  A
C1488      S1494   1.712       .  A
C1489      C1490   1.407       .  A
C1489      H1498   1.083       .  S
C1490      C1493   1.378       .  A
S1491      C1492   1.729       .  A
C1492      C1493   1.393       .  A
C1493      H1499   1.082       .  S
S1494      C1495   1.728       .  A
C1495      C1496   1.386       .  A
C1496      H1500   1.083       .  S
C1501      C1506   1.386   1_554  A
C1501      C1502   1.401       .  A
C1501      S1507   1.704       .  A
C1502      C1503   1.402       .  A
C1502      H1513   1.083       .  S
C1503      C1512   1.370       .  A
C1503      C1504   1.385   1_554  A
C1504      C1505   1.400       .  A
C1504      S1510   1.701       .  A
C1505      C1506   1.400       .  A
C1505      H1514   1.083       .  S
C1506      C1509   1.369       .  A
S1507      C1508   1.727   1_554  A
C1508      C1509   1.387       .  A
C1509      H1515   1.083       .  S
S1510      C1511   1.729       .  A
C1511      C1512   1.391   1_556  A
C1512      H1516   1.082       .  S
C1517      C1522   1.387       .  A
C1517      C1518   1.398       .  A
C1517      S1523   1.698       .  A
C1518      C1519   1.398       .  A
C1518      H1529   1.083       .  S
C1519      C1528   1.368       .  A
C1519      C1520   1.387       .  A
C1520      C1521   1.404       .  A
C1520      S1526   1.708       .  A
C1521      C1522   1.404       .  A
C1521      H1530   1.083       .  S
C1522      C1525   1.374       .  A
S1523      C1524   1.723       .  A
C1524      C1525   1.388       .  A
C1525      H1531   1.083       .  S
S1526      C1527   1.725       .  A
C1527      C1528   1.384       .  A
C1528      H1532   1.083       .  S
C1533      C1538   1.386       .  A
C1533      C1534   1.406       .  A
C1533      S1539   1.712       .  A
C1534      C1535   1.406       .  A
C1534      H1545   1.083       .  S
C1535      C1544   1.375       .  A
C1535      C1536   1.386       .  A
C1536      C1537   1.395       .  A
C1536      S1542   1.694       .  A
C1537      C1538   1.395       .  A
C1537      H1546   1.083       .  S
C1538      C1541   1.364       .  A
S1539      C1540   1.727       .  A
C1540      C1541   1.383       .  A
C1541      H1547   1.083       .  S
S1542      C1543   1.726       .  A
C1543      C1544   1.392       .  A
C1544      H1548   1.082       .  S
