geometry optimzed in LAMMPS
_audit_creation_date              2020-12-01 
_audit_creation_method            'lammps2cif' 
_symmetry_space_group_name_H-M    'P1' 
_symmetry_Int_Tables_number       1 
_symmetry_cell_setting            triclinic 
loop_ 
_symmetry_equiv_pos_as_xyz 
  x,y,z 
_cell_length_a                    23.64341958 
_cell_length_b                    24.90055348694894 
_cell_length_c                    24.354780685503066 
_cell_angle_alpha                 89.21978671769558 
_cell_angle_beta                  90.08074108172869 
_cell_angle_gamma                 82.4058303976044 
loop_ 
_atom_site_label 
_atom_site_type_symbol 
_atom_site_fract_x 
_atom_site_fract_y 
_atom_site_fract_z 
_atom_site_charge 
C1          C  0.88039265  0.88079528  0.61196630    -0.01900
C2          C  0.48547329  0.54587969  0.60763319    -0.01900
C3          C  0.85003570  0.52771519  0.96964541    -0.01900
C4          C  0.50610767  0.87073173  0.96237062    -0.01900
C5          C  0.98105615  0.03001946  0.44591254    -0.01900
C6          C  0.00334268  0.35776892  0.10909356    -0.01900
C7          C  0.35099847  0.04009251  0.09525107    -0.01900
C8          C  0.37344924  0.39843475  0.45274015    -0.01900
Zr9        Zr  0.87871599  0.89120582  0.96013786     2.17500
O10         O  0.80809849  0.88159128  0.88885945    -0.50700
O11         O  0.88558471  0.79281144  0.96390505    -0.73900
O12         O  0.91600590  0.89004580  0.86770613    -0.80700
O13         O  0.75967273  0.90841294  0.06744038    -0.82500
O14         O  0.99493305  0.93245889  0.85908547    -0.78100
O15         O  0.77975782  0.88935296  0.97811642    -0.89700
O16         O  0.95563968  0.76191874  0.02322833    -0.75700
O17         O  0.97896359  0.86996538  0.97047525    -0.85200
O18         O  0.88948548  0.86083935  0.05293235    -0.84900
O19         O  0.91470834  0.97530144  0.94042699    -0.71600
O20         O  0.83473766  0.96535443  0.01393715    -0.83800
Zr21       Zr  0.98656399  0.99491632  0.10044755     2.26400
Zr22       Zr  0.01616637  0.95422861  0.95365686     2.06300
Zr23       Zr  0.84743900  0.93505762  0.10730152     2.10000
Zr24       Zr  0.99010930  0.84021502  0.06362530     1.78800
O25         O  0.77174306  0.00160036  0.14227795    -0.92600
O26         O  0.07499031  0.78794479  0.02542469    -0.40400
O27         O  0.94815135  0.91273534  0.11977585    -0.77000
O28         O  0.03127577  0.92165444  0.04625005    -0.95700
O29         O  0.97418246  0.02741379  0.00887358    -0.89000
O30         O  0.88624668  0.01803093  0.09048784    -0.91800
C31         C  0.91571794  0.75394254  0.98981148     1.01900
C32         C  0.74557751  0.89524540  0.01875209     1.14800
C33         C  0.95443878  0.90905133  0.83915312     1.05600
O34         O  0.09781049  0.88987169  0.92725953    -0.94000
O35         O  0.09654609  0.99673141  0.98966082    -0.89700
O36         O  0.08113007  0.01170405  0.08004404    -0.82900
C37         C  0.11180770  0.01208984  0.03717202     1.12300
O38         O  0.78932171  0.06560087  0.93945329    -0.96000
Zr39       Zr  0.87392421  0.04805230  0.99743047     1.88900
O40         O  0.97796056  0.09326624  0.09715346    -0.72600
O41         O  0.03742709  0.02398511  0.88858843    -0.51900
O42         O  0.88859487  0.09959214  0.91412206    -0.96600
O43         O  0.79518095  0.10360881  0.04255168    -0.53800
O44         O  0.91688844  0.12567719  0.02910050    -0.73100
C45         C  0.95305175  0.13208436  0.06698038     0.99200
O46         O  0.04952357  0.98544513  0.18050902    -0.62000
O47         O  0.81627064  0.86491582  0.16637808    -0.56800
O48         O  0.95644231  0.99659948  0.19386470    -0.93400
O49         O  0.87915703  0.95126515  0.20100844    -0.91900
O50         O  0.97041876  0.78602062  0.14353815    -0.92200
O51         O  0.06759237  0.82585283  0.13042541    -0.91000
C52         C  0.91898750  0.97554592  0.22147830     1.18000
H53         H  0.86987336  0.82996351  0.06063887     0.34000
H54         H  0.07158264  0.91414891  0.05420979     0.44800
H55         H  0.87178590  0.04576273  0.11611127     0.38400
H56         H  0.90617024  0.98705451  0.90310906     0.34900
H57         H  0.07812746  0.75246539  0.04485713     0.26600
H58         H  0.02917344  0.05840559  0.90872947     0.32600
H59         H  0.87079427  0.13698857  0.92183414     0.38500
H60         H  0.92881033  0.79453111  0.14928807     0.32900
H61         H  0.84931750  0.85262817  0.19048880     0.31800
H62         H  0.74416829  0.97989091  0.15945603     0.33500
H63         H  0.81287480  0.12293426  0.07191358     0.32500
H64         H  0.05675843  0.85310302  0.15908859     0.36500
H65         H  0.08083122  0.95646470  0.17144529     0.29200
H66         H  0.82570491  0.85457076  0.86250366     0.33400
H67         H  0.76080961  0.04571780  0.95768677     0.36300
H68         H  0.78768715  0.88454108  0.19111635     0.28900
H69         H  0.06757571  0.01905716  0.18226334     0.41800
H70         H  0.10681253  0.90086737  0.88937893     0.31800
H71         H  0.06421452  0.78001751  0.98738132     0.39400
H72         H  0.77418309  0.07742957  0.06226435     0.31300
H73         H  0.07943831  0.01837375  0.88443124     0.31400
H74         H  0.80340996  0.91627097  0.86816149     0.31600
Zr75       Zr  0.86246837  0.52712050  0.59141408     2.17500
O76         O  0.79431419  0.60991319  0.59019433    -0.50700
O77         O  0.86527446  0.52939456  0.69132767    -0.73900
O78         O  0.76589815  0.51132033  0.60798059    -0.80700
O79         O  0.97217085  0.61849943  0.54413457    -0.82500
O80         O  0.75392136  0.42616337  0.58150527    -0.78100
O81         O  0.88895913  0.61783816  0.59070636    -0.89700
O82         O  0.93092600  0.46014860  0.72039504    -0.75700
O83         O  0.87626838  0.43523542  0.62268227    -0.85200
O84         O  0.96143945  0.50901887  0.61128919    -0.84900
O85         O  0.83179638  0.47530777  0.51664785    -0.71600
O86         O  0.90843513  0.54241608  0.50603142    -0.83800
Zr87       Zr  0.99437409  0.37834357  0.48457412     2.26400
Zr88       Zr  0.84694086  0.38259490  0.54829240     2.06300
Zr89       Zr  0.00787956  0.52334012  0.52579614     2.10000
Zr90       Zr  0.97589192  0.41671962  0.64098395     1.78800
O91         O  0.03516634  0.57571541  0.44728882    -0.92600
O92         O  0.95376187  0.34380138  0.70170926    -0.40400
O93         O  0.02546037  0.43097226  0.55778623    -0.77000
O94         O  0.94667012  0.36238940  0.56900288    -0.95700
O95         O  0.89547736  0.39588107  0.46346659    -0.89000
O96         O  0.98032264  0.46980376  0.45193514    -0.91800
C97         C  0.89253478  0.50031653  0.72917250     1.01900
C98         C  0.92858021  0.64216532  0.56993786     1.14800
C99         C  0.73535504  0.47354705  0.59985135     1.05600
O100        O  0.82365857  0.32383035  0.62336004    -0.94000
O101        O  0.87673125  0.28868625  0.51799373    -0.89700
O102        O  0.96661816  0.28886760  0.48595833    -0.82900
C103        C  0.92328549  0.26482860  0.49680548     1.12300
O104        O  0.81230675  0.56816726  0.41540516    -0.96000
Zr105      Zr  0.88110838  0.48780316  0.43274398     1.88900
O106        O  0.99689656  0.37920440  0.38435625    -0.72600
O107        O  0.77296136  0.35754259  0.48757912    -0.51900
O108        O  0.79558497  0.45806270  0.39392553    -0.96600
O109        O  0.90991751  0.55314055  0.36622096    -0.53800
O110        O  0.91975931  0.43604623  0.35440524    -0.73100
C111        C  0.96385797  0.40127710  0.34616167     0.99200
O112        O  0.05755610  0.29265641  0.47911922    -0.62000
O113        O  0.07610125  0.55988637  0.58512535    -0.56800
O114        O  0.09369203  0.38944882  0.48324204    -0.93400
O115        O  0.10130037  0.47789420  0.49860610    -0.91900
O116        O  0.05418072  0.44930766  0.68987929    -0.92200
O117        O  0.05437328  0.34383331  0.65389653    -0.91000
C118        C  0.12264541  0.42896811  0.48749573     1.18000
H119        H  0.97206575  0.53278332  0.63946143     0.34000
H120        H  0.95555469  0.32512550  0.58108812     0.44800
H121        H  0.00309338  0.47502057  0.41987434     0.38400
H122        H  0.79207897  0.48592511  0.50849356     0.34900
H123        H  0.96531182  0.35410602  0.73881386     0.26600
H124        H  0.74856906  0.39202371  0.47869968     0.32600
H125        H  0.80289204  0.45575415  0.35395833     0.38500
H126        H  0.07001213  0.47377892  0.66334850     0.32900
H127        H  0.08857424  0.59030312  0.56376138     0.31800
H128        H  0.07540443  0.58057847  0.45438117     0.33500
H129        H  0.93905384  0.53275076  0.34260423     0.32500
H130        H  0.06222118  0.32918177  0.61667779     0.36500
H131        H  0.07856379  0.29408380  0.44417366     0.29200
H132        H  0.77361862  0.61039460  0.62555538     0.33400
H133        H  0.79504529  0.56263116  0.37920215     0.36300
H134        H  0.05348925  0.57743387  0.61571369     0.28900
H135        H  0.08658224  0.29297003  0.50842509     0.41800
H136        H  0.80878223  0.34883266  0.65280232     0.31800
H137        H  0.91156817  0.34798099  0.70291355     0.39400
H138        H  0.93154111  0.57679312  0.38810595     0.31300
H139        H  0.79292944  0.34742481  0.45276612     0.31400
H140        H  0.76561804  0.60485437  0.56177206     0.31600
Zr141      Zr  0.47697957  0.51374678  0.95737085     2.17500
O142        O  0.55400306  0.51838787  0.89157921    -0.50700
O143        O  0.46065520  0.61217298  0.95742912    -0.73900
O144        O  0.44513812  0.51986399  0.86233608    -0.80700
O145        O  0.59037274  0.48444679  0.07137012    -0.82500
O146        O  0.36193487  0.48407490  0.85233559    -0.78100
O147        O  0.57576065  0.51845248  0.98448907    -0.89700
O148        O  0.40976378  0.63821289  0.03293490    -0.75700
O149        O  0.37631078  0.53710371  0.96582078    -0.85200
O150        O  0.46342667  0.53774654  0.05113678    -0.84900
O151        O  0.43588216  0.43366010  0.93344228    -0.71600
O152        O  0.51635545  0.43619397  0.01056296    -0.83800
Zr153      Zr  0.35749819  0.40230727  0.09101171     2.26400
Zr154      Zr  0.33428516  0.45669514  0.94485717     2.06300
Zr155      Zr  0.49940445  0.45953389  0.10439484     2.10000
Zr156      Zr  0.36280171  0.56098849  0.05934107     1.78800
O157        O  0.56552393  0.38477695  0.14213313    -0.92600
O158        O  0.28990007  0.61397407  0.00262236    -0.40400
O159        O  0.39853993  0.48278350  0.11327302    -0.77000
O160        O  0.31864147  0.48221269  0.03902711    -0.95700
O161        O  0.37310297  0.37831377  0.99756342    -0.89000
O162        O  0.45836773  0.37886160  0.08296408    -0.91800
C163        C  0.44108987  0.64815753  0.99213598     1.01900
C164        C  0.60756093  0.50511660  0.02668475     1.14800
C165        C  0.40423426  0.50627073  0.83320378     1.05600
O166        O  0.25743477  0.52228057  0.90835710    -0.94000
O167        O  0.24186300  0.43087170  0.97671558    -0.89700
O168        O  0.25760951  0.40195700  0.06509845    -0.82900
C169        C  0.22504628  0.41270591  0.02300462     1.12300
O170        O  0.54699361  0.34867153  0.91729556    -0.96000
Zr171      Zr  0.47423821  0.35746582  0.98854347     1.88900
O172        O  0.37257815  0.30276946  0.08345408    -0.72600
O173        O  0.31429029  0.38366781  0.88526772    -0.51900
O174        O  0.46239619  0.29752182  0.91248235    -0.96600
O175        O  0.56154016  0.31374735  0.03217877    -0.53800
O176        O  0.43906589  0.27596881  0.01912218    -0.73100
C177        C  0.40159421  0.26612298  0.05427210     0.99200
O178        O  0.30079595  0.37232638  0.16652534    -0.62000
O179        O  0.54064134  0.52338472  0.16274212    -0.56800
O180        O  0.37661005  0.41784018  0.18791100    -0.93400
O181        O  0.45885773  0.45464604  0.19588924    -0.91900
O182        O  0.37118306  0.61386298  0.14171956    -0.92200
O183        O  0.28006204  0.57877128  0.11916756    -0.91000
C184        C  0.41425470  0.43799537  0.21658246     1.18000
H185        H  0.48474712  0.56666471  0.06111769     0.34000
H186        H  0.27871095  0.49300232  0.04615401     0.44800
H187        H  0.47181106  0.34900417  0.10736843     0.38400
H188        H  0.44498531  0.42342759  0.89610688     0.34900
H189        H  0.26069355  0.63079465  0.02840954     0.26600
H190        H  0.29873439  0.35719700  0.90981207     0.32600
H191        H  0.43120366  0.31732462  0.89008093     0.38500
H192        H  0.35602560  0.65157470  0.13111929     0.32900
H193        H  0.51107000  0.53617319  0.19001335     0.31800
H194        H  0.59922237  0.40153174  0.15380671     0.33500
H195        H  0.57662839  0.28464849  0.00676383     0.32500
H196        H  0.27365907  0.54263889  0.13332252     0.36500
H197        H  0.26633393  0.39949901  0.16891850     0.29200
H198        H  0.54148136  0.54921039  0.86634402     0.33400
H199        H  0.56519924  0.38217289  0.91965383     0.36300
H200        H  0.57083592  0.50099283  0.18423149     0.28900
H201        H  0.28657303  0.33899013  0.15376376     0.41800
H202        H  0.27540864  0.55527966  0.90051019     0.31800
H203        H  0.30803972  0.64473470  0.98784050     0.39400
H204        H  0.54887188  0.29429689  0.06464857     0.31300
H205        H  0.28129238  0.39968055  0.86271387     0.31400
H206        H  0.55474663  0.48551712  0.86905468     0.31600
Zr207      Zr  0.50297150  0.90709904  0.59277074     2.17500
O208        O  0.57080987  0.83394310  0.63151475    -0.50700
O209        O  0.49465930  0.91154347  0.69258088    -0.73900
O210        O  0.60220581  0.92416463  0.58958098    -0.80700
O211        O  0.39248071  0.81137857  0.56254744    -0.82500
O212        O  0.61270569  0.00591758  0.55206765    -0.78100
O213        O  0.48550500  0.81389197  0.58464676    -0.89700
O214        O  0.42965884  0.98219447  0.71734505    -0.75700
O215        O  0.48997567  0.00121198  0.61122674    -0.85200
O216        O  0.40444148  0.92712569  0.61563539    -0.84900
O217        O  0.52909513  0.94830585  0.50795840    -0.71600
O218        O  0.44976462  0.88237973  0.51500678    -0.83800
Zr219      Zr  0.36355744  0.04362613  0.47140738     2.26400
Zr220      Zr  0.51476013  0.04353464  0.52678058     2.06300
Zr221      Zr  0.35094897  0.90485275  0.53697213     2.10000
Zr222      Zr  0.39085065  0.02182007  0.63228649     1.78800
O223        O  0.31433113  0.84358909  0.47291989    -0.92600
O224        O  0.42460713  0.09621349  0.68114675    -0.40400
O225        O  0.33679147  0.00020236  0.55432506    -0.77000
O226        O  0.41580207  0.06675583  0.55049909    -0.95700
O227        O  0.46151954  0.02123590  0.44788862    -0.89000
O228        O  0.37492849  0.94882634  0.45361644    -0.91800
C229        C  0.46643343  0.94115345  0.72858740     1.01900
C230        C  0.44277434  0.78820419  0.57642511     1.14800
C231        C  0.63327594  0.95994666  0.57349719     1.05600
O232        O  0.54578233  0.10381654  0.59529224    -0.94000
O233        O  0.48178398  0.13552558  0.49481751    -0.89700
O234        O  0.39217320  0.13394762  0.46106899    -0.82900
C235        C  0.43488395  0.15841657  0.47345942     1.12300
O236        O  0.54953304  0.85100626  0.42303538    -0.96000
Zr237      Zr  0.47308696  0.92611607  0.43184068     1.88900
O238        O  0.36550678  0.03588512  0.37190088    -0.72600
O239        O  0.57882707  0.06927815  0.45567204    -0.51900
O240        O  0.54923351  0.94651673  0.37095689    -0.96600
O241        O  0.44238506  0.84565005  0.39191786    -0.53800
O242        O  0.42785460  0.96277163  0.34783702    -0.73100
C243        C  0.39073994  0.00359946  0.33629940     0.99200
O244        O  0.28425811  0.11642006  0.45955308    -0.62000
O245        O  0.28440908  0.88254717  0.60761668    -0.56800
O246        O  0.26396855  0.02950861  0.46882968    -0.93400
O247        O  0.25554325  0.94606514  0.50489802    -0.91900
O248        O  0.30942673  0.99928609  0.68482306    -0.92200
O249        O  0.31638632  0.09833374  0.64287579    -0.91000
C250        C  0.23460829  0.99163322  0.48231562     1.18000
H251        H  0.39533938  0.90639593  0.64744094     0.34000
H252        H  0.40744620  0.10469336  0.55861800     0.44800
H253        H  0.35050485  0.94038968  0.42397592     0.38400
H254        H  0.56772848  0.93606945  0.49686868     0.34900
H255        H  0.40811395  0.09464824  0.71839742     0.26600
H256        H  0.60202160  0.03492063  0.44520119     0.32600
H257        H  0.54918219  0.98613592  0.37368639     0.38500
H258        H  0.28016888  0.99434125  0.65687321     0.32900
H259        H  0.28656556  0.84259587  0.60685756     0.31800
H260        H  0.28250957  0.82983999  0.49270636     0.33500
H261        H  0.42021010  0.85873691  0.35883858     0.32500
H262        H  0.29386789  0.09929418  0.60848891     0.36500
H263        H  0.28845044  0.14285918  0.48882461     0.29200
H264        H  0.59561465  0.85040881  0.65745711     0.33400
H265        H  0.54628856  0.82826731  0.45628025     0.36300
H266        H  0.30165138  0.89006064  0.64325693     0.28900
H267        H  0.29143215  0.13528079  0.42468288     0.41800
H268        H  0.51108282  0.12901741  0.60406675     0.31800
H269        H  0.46595240  0.08472042  0.68658366     0.39400
H270        H  0.41360149  0.83513783  0.41794348     0.31300
H271        H  0.55404941  0.07944651  0.42335930     0.31400
H272        H  0.59600322  0.81980864  0.60123748     0.31600
C273        C  0.30743954  0.40023612  0.46868999    -0.04700
C274        C  0.28050992  0.42610490  0.51684181    -0.01900
C275        C  0.22062058  0.43636263  0.52123976     0.03100
C276        C  0.18552221  0.41628242  0.48234883    -0.04700
C277        C  0.21068633  0.38048615  0.44229077    -0.01800
C278        C  0.27067009  0.37197630  0.43565333     0.03100
C279        C  0.31034113  0.43905390  0.56609996     0.37800
C280        C  0.17505023  0.35440769  0.40501931     0.37800
C281        C  0.29186694  0.33798272  0.39025046     0.36200
C282        C  0.19497745  0.46420946  0.56925768     0.36200
N283        N  0.30384117  0.31075395  0.35279587    -0.38600
N284        N  0.17603457  0.48570132  0.60820191    -0.38600
N285        N  0.14815975  0.33273306  0.37475468    -0.38100
N286        N  0.32972544  0.45037528  0.60742295    -0.38100
C287        C  0.38341597  0.42348756  0.39259417    -0.04700
C288        C  0.33851002  0.44633317  0.35541474    -0.01900
C289        C  0.34937632  0.45366455  0.29868562     0.03100
C290        C  0.40483458  0.44251880  0.27745054    -0.04700
C291        C  0.45057010  0.43449850  0.31488786    -0.01800
C292        C  0.44053033  0.42517284  0.37155382     0.03100
C293        C  0.28103640  0.46655353  0.37253564     0.37800
C294        C  0.50893948  0.42998335  0.29459714     0.37800
C295        C  0.49173442  0.41022964  0.40385208     0.36200
C296        C  0.30323697  0.47620114  0.26215053     0.36200
N297        N  0.53632908  0.39892126  0.42366472    -0.38600
N298        N  0.26623261  0.49472144  0.23377325    -0.38600
N299        N  0.55546752  0.42618778  0.27889702    -0.38100
N300        N  0.23445686  0.48419161  0.38261964    -0.38100
C301        C  0.42575620  0.21826499  0.46894734    -0.04700
C302        C  0.44580818  0.24584253  0.42435535    -0.01900
C303        C  0.42446817  0.30104196  0.41423981     0.03100
C304        C  0.39651913  0.33461381  0.45737815    -0.04700
C305        C  0.38569950  0.30493238  0.50690342    -0.01800
C306        C  0.39380964  0.24785113  0.50919705     0.03100
C307        C  0.48704158  0.21674354  0.38756714     0.37800
C308        C  0.37509861  0.32977609  0.55979194     0.37800
C309        C  0.37227732  0.21964742  0.55588076     0.36200
C310        C  0.42485013  0.31578201  0.35667011     0.36200
N311        N  0.35456664  0.19852998  0.59351355    -0.38600
N312        N  0.42516377  0.32195043  0.30947603    -0.38600
N313        N  0.37138409  0.34175006  0.60551194    -0.38100
N314        N  0.52092737  0.19417929  0.35886581    -0.38100
C315        C  0.36585140  0.09799424  0.07398184    -0.04700
C316        C  0.42324927  0.11219244  0.07716912    -0.01900
C317        C  0.43510439  0.16563730  0.06513404     0.03100
C318        C  0.39024642  0.20847254  0.05978326    -0.04700
C319        C  0.33435879  0.19550003  0.05752212    -0.01800
C320        C  0.32392741  0.14122624  0.05438483     0.03100
C321        C  0.47095545  0.07618513  0.09937115     0.37800
C322        C  0.28687459  0.23726575  0.06574813     0.37800
C323        C  0.27316773  0.13331261  0.02383179     0.33400
C324        C  0.49375582  0.17740919  0.06535272     0.36200
N325        N  0.23279316  0.12948198  0.99796979    -0.38600
N326        N  0.54071580  0.18586412  0.06567561    -0.38600
N327        N  0.25013318  0.27055959  0.07689420    -0.38100
N328        N  0.51246142  0.05285112  0.11757039    -0.38100
C329        C  0.37661095  0.01471489  0.27744949    -0.04700
C330        C  0.35376970  0.97634492  0.24573903    -0.01900
C331        C  0.34219171  0.98602275  0.18905457     0.03100
C332        C  0.35657057  0.03399034  0.16100947    -0.04700
C333        C  0.37238586  0.07548575  0.19721896    -0.01800
C334        C  0.38408438  0.06464973  0.25364894     0.03100
C335        C  0.34094298  0.92651551  0.27204444     0.37800
C336        C  0.36911330  0.13237588  0.18257360     0.37800
C337        C  0.40258935  0.10622860  0.28842986     0.36200
C338        C  0.31328249  0.94554729  0.16285699     0.36200
N339        N  0.41637250  0.13956164  0.31617654    -0.38600
N340        N  0.28820277  0.91115432  0.14907496    -0.38600
N341        N  0.36589994  0.17887461  0.17665185    -0.38100
N342        N  0.33028314  0.88671892  0.29218117    -0.38100
C343        C  0.17030024  0.02696726  0.04600324    -0.04700
C344        C  0.18175646  0.05996025  0.09059385    -0.01900
C345        C  0.23867935  0.06359160  0.10732955     0.03100
C346        C  0.28632638  0.03168788  0.08156531    -0.04700
C347        C  0.27075879  0.99282293  0.04290731    -0.01800
C348        C  0.21659512  0.99869054  0.01847151     0.03100
C349        C  0.13500426  0.09312340  0.11775208     0.37800
C350        C  0.30024661  0.93840653  0.03829077     0.37800
C351        C  0.20873633  0.96998053  0.96800373     0.36200
C352        C  0.24575962  0.10213279  0.15005624     0.36200
N353        N  0.20364476  0.94745853  0.92741303    -0.38600
N354        N  0.24637956  0.13390440  0.18421664    -0.38600
N355        N  0.31814573  0.89323123  0.03340756    -0.38100
N356        N  0.09835047  0.11953475  0.14004743    -0.38100
C357        C  0.97675226  0.38540211  0.28833290    -0.04700
C358        C  0.93539590  0.36430470  0.25658561    -0.01900
C359        C  0.94419437  0.35525694  0.19984266     0.03100
C360        C  0.99685805  0.36441988  0.17364874    -0.04700
C361        C  0.04180326  0.37550457  0.20981863    -0.01800
C362        C  0.02976851  0.39146280  0.26451073     0.03100
C363        C  0.88307868  0.35233762  0.28253706     0.37800
C364        C  0.10162206  0.36285934  0.19556868     0.37800
C365        C  0.07130455  0.41715627  0.29507910     0.36200
C366        C  0.89820543  0.33607096  0.16930683     0.36200
N367        N  0.10410792  0.43895735  0.31847723    -0.38600
N368        N  0.86092714  0.31968228  0.14699289    -0.38600
N369        N  0.14965650  0.35198826  0.18581880    -0.38100
N370        N  0.84166000  0.34266347  0.30355300    -0.38100
C371        C  0.06306269  0.37360275  0.08577499    -0.04700
C372        C  0.10626666  0.33513957  0.06106326    -0.01900
C373        C  0.14907582  0.35225166  0.02699419     0.03100
C374        C  0.16391166  0.40443272  0.03141389    -0.04700
C375        C  0.12754131  0.44244368  0.06138111    -0.01800
C376        C  0.07817025  0.42773464  0.08847130     0.03100
C377        C  0.11607608  0.27866620  0.07820733     0.37800
C378        C  0.14231365  0.49708918  0.06527557     0.37800
C379        C  0.05319933  0.46571867  0.12881605     0.36200
C380        C  0.17922149  0.31542895  0.98797802     0.36200
N381        N  0.03875930  0.49812887  0.16132199    -0.38600
N382        N  0.20296443  0.28643290  0.95632939    -0.38600
N383        N  0.15418433  0.54062013  0.06771261    -0.38100
N384        N  0.12583846  0.23355708  0.09143851    -0.38100
C385        C  0.96839036  0.18770184  0.07634580    -0.04700
C386        C  0.98261952  0.22068722  0.03219918    -0.01900
C387        C  0.99755427  0.27335265  0.04157897     0.03100
C388        C  0.99829256  0.29480803  0.09633520    -0.04700
C389        C  0.99886202  0.25386711  0.13911607    -0.01800
C390        C  0.97667004  0.20499186  0.13002234     0.03100
C391        C  0.98493311  0.19929960  0.97694491     0.37800
C392        C  0.03116683  0.25500981  0.18981919     0.37800
C393        C  0.96479605  0.17134606  0.17686313     0.36200
C394        C  0.01542668  0.30290418  0.99412244     0.36200
N395        N  0.95586354  0.14450437  0.21419735    -0.38600
N396        N  0.03000119  0.32548491  0.95587573    -0.38600
N397        N  0.05655489  0.25303940  0.23064954    -0.38100
N398        N  0.98746619  0.18212665  0.93296981    -0.38100
C399        C  0.95867320  0.09205910  0.45716645    -0.04700
C400        C  0.97953288  0.13380226  0.42466187    -0.01900
C401        C  0.96224601  0.18922538  0.43478095     0.03100
C402        C  0.92983735  0.20592801  0.48163915    -0.04700
C403        C  0.90668203  0.16603775  0.51276941    -0.01800
C404        C  0.91648064  0.11064891  0.49738324     0.03100
C405        C  0.01541593  0.12220805  0.37698542     0.37800
C406        C  0.87180819  0.18156736  0.56036238     0.37800
C407        C  0.87272308  0.07827542  0.51271658     0.36200
C408        C  0.97615993  0.22938112  0.39459522     0.36200
N409        N  0.83365627  0.05633980  0.52212299    -0.38600
N410        N  0.98734608  0.26067815  0.36217341    -0.38600
N411        N  0.84419954  0.19360060  0.59857238    -0.38100
N412        N  0.04322165  0.11935866  0.33782276    -0.38100
C413        C  0.05005912  0.02668350  0.45004336    -0.04700
C414        C  0.09031376  0.00562264  0.40839996    -0.01900
C415        C  0.14868561  0.98911172  0.42145632     0.03100
C416        C  0.17174524  0.00297196  0.47158531    -0.04700
C417        C  0.13620386  0.03504148  0.50790523    -0.01800
C418        C  0.07651894  0.04683659  0.49795660     0.03100
C419        C  0.07660039  0.00608252  0.35033612     0.37800
C420        C  0.16102870  0.05380239  0.55757718     0.37800
C421        C  0.04339178  0.07679906  0.54047528     0.36200
C422        C  0.18588379  0.95876318  0.38207753     0.36200
N423        N  0.01888926  0.10032155  0.57570095    -0.38600
N424        N  0.21512845  0.93416485  0.35072489    -0.38600
N425        N  0.18074690  0.06857776  0.59722515    -0.38100
N426        N  0.06827720  0.00640650  0.30345245    -0.38100
C427        C  0.95808088  0.01373557  0.38760746    -0.04700
C428        C  0.91438963  0.04723545  0.35597250    -0.01900
C429        C  0.90035634  0.03303065  0.30236755     0.03100
C430        C  0.92246542  0.98293072  0.28115319    -0.04700
C431        C  0.95714297  0.94534674  0.31411776    -0.01800
C432        C  0.97466921  0.95999979  0.36685548     0.03100
C433        C  0.87635556  0.09230863  0.37801952     0.37800
C434        C  0.97753792  0.89240862  0.29215378     0.37800
C435        C  0.01394559  0.92047424  0.39717247     0.36200
C436        C  0.86208183  0.07027652  0.26822498     0.36200
N437        N  0.04720949  0.88952132  0.41967225    -0.38600
N438        N  0.83184623  0.09969345  0.24083601    -0.38600
N439        N  0.99366507  0.85021321  0.27457753    -0.38100
N440        N  0.84406042  0.12819972  0.39283766    -0.38100
C441        C  0.46866514  0.91608742  0.99881793    -0.04700
C442        C  0.41578411  0.94497175  0.97903549    -0.01900
C443        C  0.39155927  0.99318704  0.00472986     0.03100
C444        C  0.39501751  0.99717355  0.06306248    -0.04700
C445        C  0.44312940  0.96308688  0.08642126    -0.01800
C446        C  0.48486840  0.93493206  0.05129760     0.03100
C447        C  0.38231344  0.92615743  0.93490591     0.37800
C448        C  0.45707148  0.96008393  0.14449054     0.37800
C449        C  0.54307636  0.93979614  0.06619457     0.36200
C450        C  0.35960921  0.03442348  0.97026067     0.36200
N451        N  0.58772289  0.94799557  0.08078514    -0.38600
N452        N  0.33613998  0.06572351  0.93969373    -0.38600
N453        N  0.47173426  0.95621947  0.18991637    -0.38100
N454        N  0.35281660  0.91322188  0.90091632    -0.38100
C455        C  0.49087310  0.81147826  0.97473345    -0.04700
C456        C  0.44599712  0.79979585  0.01085777    -0.01900
C457        C  0.42509429  0.74931679  0.00948415     0.03100
C458        C  0.45786720  0.70400496  0.98587427    -0.04700
C459        C  0.50939290  0.71206687  0.95953337    -0.01800
C460        C  0.52321720  0.76494354  0.95003311     0.03100
C461        C  0.42939641  0.83122698  0.05902277     0.37800
C462        C  0.54966089  0.66611582  0.94232094     0.37800
C463        C  0.57027926  0.76914244  0.91282599     0.36200
C464        C  0.36961744  0.74494176  0.03359155     0.36200
N465        N  0.60830038  0.76714797  0.88274322    -0.38600
N466        N  0.32521798  0.74227828  0.05261477    -0.38600
N467        N  0.58253175  0.63023988  0.92860926    -0.38100
N468        N  0.41589251  0.85138562  0.10034973    -0.38100
C469        C  0.57321579  0.86789863  0.97430140    -0.04700
C470        C  0.61181103  0.88873732  0.93668012    -0.01900
C471        C  0.66141884  0.90692235  0.95611895     0.03100
C472        C  0.68602111  0.88647586  0.00602970    -0.04700
C473        C  0.65726657  0.85062880  0.03726018    -0.01800
C474        C  0.60042118  0.84292378  0.02328026     0.03100
C475        C  0.60959406  0.88236188  0.87749428     0.37800
C476        C  0.68556697  0.82275542  0.08452888     0.37800
C477        C  0.57127225  0.81107593  0.06163258     0.36200
C478        C  0.68709182  0.94619043  0.92299660     0.36200
N479        N  0.55064406  0.78469377  0.09339943    -0.38600
N480        N  0.70599010  0.97783070  0.89580144    -0.38600
N481        N  0.70821188  0.80032452  0.12204804    -0.38100
N482        N  0.60989157  0.87719048  0.83029517    -0.38100
C483        C  0.47423257  0.92448806  0.78712769    -0.04700
C484        C  0.49155644  0.95982108  0.82624677    -0.01900
C485        C  0.50019577  0.94287989  0.88165214     0.03100
C486        C  0.49211824  0.88875971  0.89971800    -0.04700
C487        C  0.46597321  0.85696219  0.85977960    -0.01800
C488        C  0.45934688  0.87429874  0.80427565     0.03100
C489        C  0.50166085  0.01382533  0.80913303     0.37800
C490        C  0.43584907  0.81161180  0.87413407     0.37800
C491        C  0.43060362  0.84305336  0.76526246     0.36200
C492        C  0.51995818  0.98153489  0.91913844     0.36200
N493        N  0.40669267  0.81893239  0.73456486    -0.38600
N494        N  0.53579531  0.01266519  0.94840294    -0.38600
N495        N  0.40988064  0.77601908  0.88222796    -0.38100
N496        N  0.50946232  0.05699756  0.79575049    -0.38100
C497        C  0.88664115  0.48193770  0.00796920    -0.04700
C498        C  0.91432554  0.43027009  0.98969215    -0.01900
C499        C  0.93023622  0.38812581  0.02815816     0.03100
C500        C  0.95218065  0.39914570  0.08001524    -0.04700
C501        C  0.92365787  0.44963457  0.10125853    -0.01800
C502        C  0.88682650  0.48676422  0.06691872     0.03100
C503        C  0.91986819  0.41331096  0.93316467     0.37800
C504        C  0.92698420  0.46497991  0.15831600     0.37800
C505        C  0.85430748  0.53273923  0.09358127     0.36200
C506        C  0.89488489  0.34483818  0.02567162     0.36200
N507        N  0.83111115  0.56812171  0.11869396    -0.38600
N508        N  0.86600996  0.31084437  0.02303263    -0.38600
N509        N  0.92683581  0.48005252  0.20310843    -0.38100
N510        N  0.92522933  0.39742958  0.88873937    -0.38100
C511        C  0.85879562  0.51783576  0.90493777    -0.04700
C512        C  0.91466320  0.51979022  0.88134079    -0.01900
C513        C  0.92405980  0.51777010  0.82411823     0.03100
C514        C  0.87947313  0.51282008  0.78767600    -0.04700
C515        C  0.82390734  0.51478872  0.80789965    -0.01800
C516        C  0.81297679  0.51614801  0.86523196     0.03100
C517        C  0.96614665  0.51806638  0.91393688     0.37800
C518        C  0.77696511  0.51830572  0.76880602     0.37800
C519        C  0.75285848  0.52017395  0.87917656     0.36200
C520        C  0.98058591  0.52214925  0.80204070     0.36200
N521        N  0.70412770  0.52434142  0.88682626    -0.38600
N522        N  0.02549047  0.52596696  0.78480864    -0.38600
N523        N  0.73945210  0.52300312  0.73784579    -0.38100
N524        N  0.01123479  0.51370580  0.93336445    -0.38100
C525        C  0.78556496  0.52386360  0.98975547    -0.04700
C526        C  0.74707521  0.56737309  0.01411958    -0.01900
C527        C  0.68955674  0.56076956  0.02717227     0.03100
C528        C  0.66949197  0.51066626  0.02129614    -0.04700
C529        C  0.70761259  0.46600353  0.00523483    -0.01800
C530        C  0.76330676  0.47238579  0.98716957     0.03100
C531        C  0.76371248  0.61926755  0.02888366     0.37800
C532        C  0.68781223  0.41306939  0.00385973     0.37800
C533        C  0.79110375  0.42691248  0.95659208     0.36200
C534        C  0.65065402  0.60546120  0.04902964     0.36200
N535        N  0.80642159  0.38922250  0.93060725    -0.38600
N536        N  0.61967350  0.64079532  0.06683823    -0.38600
N537        N  0.67243731  0.37085766  0.00287675    -0.38100
N538        N  0.77428499  0.66130352  0.04223905    -0.38100
C539        C  0.86922607  0.58737016  0.97542416    -0.04700
C540        C  0.84416089  0.63208930  0.94100631    -0.01900
C541        C  0.86444177  0.68335485  0.94115410     0.03100
C542        C  0.90185975  0.69661840  0.98277333    -0.04700
C543        C  0.92423855  0.65434641  0.01908340    -0.01800
C544        C  0.91504288  0.60030066  0.00970387     0.03100
C545        C  0.79365123  0.62974862  0.90775134     0.37800
C546        C  0.95809584  0.66480369  0.06679780     0.37800
C547        C  0.96021615  0.56075005  0.03005403     0.36200
C548        C  0.84523361  0.72213900  0.89773096     0.36200
N549        N  0.99931396  0.53191494  0.04558092    -0.38600
N550        N  0.82906753  0.75146464  0.86216346    -0.38600
N551        N  0.98497193  0.67195787  0.10511935    -0.38100
N552        N  0.75259639  0.63416623  0.88121785    -0.38100
C553        C  0.46053465  0.50845451  0.56294223    -0.04700
C554        C  0.40264698  0.51907314  0.54586154    -0.01900
C555        C  0.38322574  0.49109223  0.50074000     0.03100
C556        C  0.40492750  0.43529484  0.49261110    -0.04700
C557        C  0.45810299  0.41830862  0.51968339    -0.01800
C558        C  0.48952771  0.45740489  0.54309408     0.03100
C559        C  0.36179492  0.55991314  0.57131655     0.37800
C560        C  0.48555466  0.36226710  0.52095012     0.37800
C561        C  0.55026980  0.43917474  0.54799827     0.36200
C562        C  0.33636290  0.51991202  0.46942707     0.36200
N563        N  0.59746705  0.41955907  0.54902883    -0.38600
N564        N  0.29985432  0.54833349  0.44829720    -0.38600
N565        N  0.50993739  0.31876315  0.52333968    -0.38100
N566        N  0.32567105  0.59087190  0.58866425    -0.38100
C567        C  0.55313693  0.52983898  0.61105481    -0.04700
C568        C  0.58778619  0.54249267  0.56494713    -0.01900
C569        C  0.64701988  0.52567326  0.56373568     0.03100
C570        C  0.67330253  0.49053082  0.60431017    -0.04700
C571        C  0.64175316  0.47757344  0.65003790    -0.01800
C572        C  0.58415217  0.50128813  0.65629378     0.03100
C573        C  0.56493483  0.56751304  0.51420823     0.37800
C574        C  0.66900285  0.43993542  0.69112776     0.37800
C575        C  0.56237480  0.50007745  0.71167335     0.36200
C576        C  0.68044332  0.54166768  0.51740540     0.36200
N577        N  0.54837361  0.49907001  0.75714672    -0.38600
N578        N  0.70516195  0.55535025  0.47987473    -0.38600
N579        N  0.69059699  0.40963134  0.72368129    -0.38100
N580        N  0.55513718  0.58602703  0.47084651    -0.38100
C581        C  0.45145421  0.53509023  0.66375403    -0.04700
C582        C  0.42030137  0.57754476  0.69633962    -0.01900
C583        C  0.40703538  0.56830143  0.75199674     0.03100
C584        C  0.40909662  0.51558811  0.77297655    -0.04700
C585        C  0.42485469  0.47205301  0.73794568    -0.01800
C586        C  0.44869556  0.48087795  0.68541452     0.03100
C587        C  0.39407785  0.62934243  0.67452027     0.37800
C588        C  0.42262110  0.41733796  0.75882532     0.37800
C589        C  0.47700559  0.43247158  0.66000663     0.36200
C590        C  0.39025411  0.61367726  0.78813290     0.36200
N591        N  0.49955406  0.39110969  0.64525490    -0.38600
N592        N  0.37755250  0.64959709  0.81724180    -0.38600
N593        N  0.42082864  0.37384907  0.77549613    -0.38100
N594        N  0.37085893  0.67101300  0.66005008    -0.38100
C595        C  0.47813860  0.61002963  0.59300857    -0.04700
C596        C  0.45005359  0.63653803  0.54491489    -0.01900
C597        C  0.43682759  0.69395155  0.54117539     0.03100
C598        C  0.45416364  0.72753502  0.58210994    -0.04700
C599        C  0.48834887  0.70317482  0.62548799    -0.01800
C600        C  0.50184338  0.64607278  0.63001933     0.03100
C601        C  0.44007796  0.60863206  0.49463170     0.37800
C602        C  0.50748608  0.73657862  0.66851213     0.37800
C603        C  0.53806662  0.62633220  0.67613006     0.36200
C604        C  0.40863805  0.71883824  0.49223388     0.36200
N605        N  0.56773711  0.61521722  0.71354746    -0.38600
N606        N  0.38673956  0.73747623  0.45259328    -0.38600
N607        N  0.52360932  0.76138075  0.70374783    -0.38100
N608        N  0.43272425  0.58980548  0.45240010    -0.38100
C609        C  0.91613768  0.91432336  0.57021979    -0.04700
C610        C  0.90998224  0.90978337  0.51274671    -0.01900
C611        C  0.91315175  0.95642844  0.48012595     0.03100
C612        C  0.95902378  0.98822342  0.48982429    -0.04700
C613        C  0.98616759  0.97442785  0.54144698    -0.01800
C614        C  0.95417380  0.95363194  0.58366539     0.03100
C615        C  0.94237172  0.86253726  0.48878190     0.37800
C616        C  0.04506251  0.94975918  0.54311551     0.37800
C617        C  0.96365430  0.97577903  0.63689955     0.36200
C618        C  0.86763816  0.96903813  0.44056643     0.36200
N619        N  0.97240984  0.99548229  0.67831798    -0.38600
N620        N  0.82972018  0.97812688  0.41025197    -0.38600
N621        N  0.09151018  0.92824783  0.54570425    -0.38100
N622        N  0.96778682  0.82442989  0.46963576    -0.38100
C623        C  0.89040543  0.81598770  0.60051309    -0.04700
C624        C  0.90843933  0.77585234  0.64286081    -0.01900
C625        C  0.93041967  0.72207618  0.62971788     0.03100
C626        C  0.92204067  0.70193997  0.57742070    -0.04700
C627        C  0.89349860  0.73692085  0.53763637    -0.01800
C628        C  0.87613418  0.79255551  0.54906846     0.03100
C629        C  0.89359750  0.78391205  0.70036004     0.37800
C630        C  0.88016737  0.71482879  0.48496620     0.37800
C631        C  0.83801761  0.82247647  0.50902851     0.36200
C632        C  0.95896929  0.68594754  0.67158450     0.36200
N633        N  0.80813493  0.84520586  0.47614982    -0.38600
N634        N  0.98221598  0.65719341  0.70458443    -0.38600
N635        N  0.86964917  0.69716071  0.44302307    -0.38100
N636        N  0.88202421  0.78853718  0.74638545    -0.38100
C637        C  0.90184294  0.89037275  0.67205339    -0.04700
C638        C  0.96069560  0.87293022  0.68746475    -0.01900
C639        C  0.97980939  0.87917317  0.74203950     0.03100
C640        C  0.94389351  0.90965722  0.77931372    -0.04700
C641        C  0.88949952  0.93295730  0.76194907    -0.01800
C642        C  0.86562287  0.91486515  0.71437626     0.03100
C643        C  0.00138726  0.84719827  0.64802646     0.37800
C644        C  0.85665427  0.97469570  0.79425399     0.37800
C645        C  0.80441534  0.91403448  0.71651566     0.36200
C646        C  0.03568957  0.85388559  0.75976835     0.36200
N647        N  0.75564381  0.91385325  0.72051211    -0.38600
N648        N  0.08026145  0.83331951  0.77369432    -0.38600
N649        N  0.83046703  0.00872107  0.81895063    -0.38100
N650        N  0.03373769  0.82673925  0.61659051    -0.38100
C651        C  0.81457471  0.90397526  0.60376151    -0.04700
C652        C  0.77110175  0.86938981  0.59897405    -0.01900
C653        C  0.71817136  0.88884316  0.57571825     0.03100
C654        C  0.69666960  0.94403583  0.57860783    -0.04700
C655        C  0.73494687  0.98038787  0.59322066    -0.01800
C656        C  0.79374260  0.96112348  0.60359181     0.03100
C657        C  0.77453844  0.81646436  0.62532061     0.37800
C658        C  0.71365233  0.03730511  0.59995301     0.37800
C659        C  0.82808509  0.00021999  0.62470214     0.36200
C660        C  0.68815297  0.85171225  0.54506618     0.36200
N661        N  0.85086057  0.03436796  0.64286916    -0.38600
N662        N  0.66570931  0.82236797  0.51878131    -0.38600
N663        N  0.69702017  0.08271636  0.60567691    -0.38100
N664        N  0.77467514  0.77447655  0.64635797    -0.38100
loop_ 
_geom_bond_atom_site_label_1 
_geom_bond_atom_site_label_2 
_geom_bond_distance 
_geom_bond_site_symmetry_2 
_ccdc_geom_bond_type 
C1          C609   1.616       .  S
C1          C623   1.628       .  S
C1          C637   1.580       .  S
C1          C651   1.598       .  S
C2          C553   1.604       .  S
C2          C567   1.599       .  S
C2          C581   1.624       .  S
C2          C595   1.619       .  S
C3          C497   1.621   1_556  S
C3          C511   1.608       .  S
C3          C525   1.616       .  S
C3          C539   1.617       .  S
C4          C441   1.616       .  S
C4          C455   1.589       .  S
C4          C469   1.605       .  S
C4          C486   1.606       .  S
C5          C399   1.593       .  S
C5          C413   1.625   1_655  S
C5          C427   1.596       .  S
C5          C612   1.616   1_545  S
C6          C360   1.589   1_455  S
C6          C371   1.617       .  S
C6          C388   1.622   1_455  S
C6          C500   1.635   1_455  S
C7          C315   1.608       .  S
C7          C332   1.610       .  S
C7          C346   1.606       .  S
C7          C444   1.603   1_545  S
C8          C273   1.604       .  S
C8          C287   1.614       .  S
C8          C304   1.613       .  S
C8          C556   1.594       .  S
Zr9          O10   2.443       .  S
Zr9          O11   2.434       .  S
Zr9          O12   2.418       .  S
Zr9          O15   2.387       .  S
Zr9          O17   2.372       .  S
Zr9          O18   2.376   1_556  S
Zr9          O19   2.405       .  S
Zr9          O20   2.402   1_556  S
O10          H66   0.988       .  S
O10          H74   0.987       .  S
O11          C31   1.282       .  A
O12          C33   1.281       .  A
O13         Zr23   2.463       .  S
O13          C32   1.290       .  A
O14         Zr22   2.440   1_655  S
O14          C33   1.283       .  A
O15          C32   1.276   1_556  A
O16         Zr24   2.430       .  S
O16          C31   1.282   1_554  A
O17         Zr22   2.410   1_655  S
O17         Zr24   2.380   1_556  S
O18         Zr23   2.396       .  S
O18         Zr24   2.380       .  S
O18          H53   0.965       .  S
O19         Zr22   2.407   1_655  S
O19         Zr39   2.398   1_565  S
O19          H56   0.964       .  S
O20         Zr23   2.392       .  S
O20         Zr39   2.396   1_564  S
Zr21         O46   2.441   1_655  S
Zr21         O40   2.431   1_565  S
Zr21         O48   2.384       .  S
Zr21         O36   2.380   1_665  S
Zr21         O27   2.388       .  S
Zr21         O28   2.397   1_655  S
Zr21         O29   2.367   1_565  S
Zr21         O30   2.377   1_565  S
Zr22         O41   2.437   1_565  S
Zr22         O34   2.433       .  S
Zr22         O35   2.460       .  S
Zr22         O28   2.396   1_556  S
Zr22         O29   2.389   1_466  S
Zr23         O25   2.436   1_565  S
Zr23         O47   2.437       .  S
Zr23         O49   2.456       .  S
Zr23         O27   2.391       .  S
Zr23         O30   2.399   1_565  S
Zr24         O50   2.434       .  S
Zr24         O51   2.436   1_655  S
Zr24         O26   2.436   1_655  S
Zr24         O27   2.390       .  S
Zr24         O28   2.395   1_655  S
O25          H62   0.990   1_545  S
O26          H57   0.991       .  S
O26          H71   0.990   1_554  S
O28          H54   0.965       .  S
O29         Zr39   2.373   1_554  S
O30         Zr39   2.382   1_554  S
O30          H55   0.966       .  S
C31         C542   1.518       .  S
C32         C472   1.486       .  S
C33         C640   1.478       .  S
O34          H70   0.990       .  S
O35          C37   1.289   1_566  A
O36          C37   1.273       .  A
C37         C343   1.494       .  S
O38         Zr39   2.435       .  S
O38          H67   0.990       .  S
Zr39         O42   2.436       .  S
Zr39         O43   2.440   1_556  S
Zr39         O44   2.433   1_556  S
O40          C45   1.285       .  A
O41          H58   0.990       .  S
O41          H73   0.990       .  S
O42          H59   0.990       .  S
O43          H63   0.990       .  S
O43          H72   0.990       .  S
O44          C45   1.283       .  A
C45         C385   1.498       .  S
O46          H65   0.990       .  S
O46          H69   0.990   1_565  S
O47          H61   0.990       .  S
O47          H68   0.990       .  S
O48          C52   1.275       .  A
O49          C52   1.288       .  A
O50          H60   0.989       .  S
O51          H64   0.990       .  S
C52         C430   1.471       .  S
Zr75         O76   2.443       .  S
Zr75         O77   2.436       .  S
Zr75         O78   2.401       .  S
Zr75         O81   2.422       .  S
Zr75         O83   2.382       .  S
Zr75         O84   2.372       .  S
Zr75         O85   2.411       .  S
Zr75         O86   2.397       .  S
O76         H132   0.991       .  S
O76         H140   0.989       .  S
O77          C97   1.283       .  A
O78          C99   1.277       .  A
O79         Zr89   2.455   1_655  S
O79          C98   1.287       .  A
O80         Zr88   2.463       .  S
O80          C99   1.289       .  A
O81          C98   1.282       .  A
O82         Zr90   2.408       .  S
O82          C97   1.279       .  A
O83         Zr88   2.405       .  S
O83         Zr90   2.380       .  S
O84         Zr89   2.400   1_655  S
O84         Zr90   2.381       .  S
O84         H119   0.966       .  S
O85         Zr88   2.405       .  S
O85        Zr105   2.391       .  S
O85         H122   0.961       .  S
O86         Zr89   2.383   1_655  S
O86        Zr105   2.397       .  S
Zr87        O112   2.443   1_655  S
Zr87        O106   2.441       .  S
Zr87        O114   2.401   1_655  S
Zr87        O102   2.404       .  S
Zr87         O93   2.398   1_655  S
Zr87         O94   2.400       .  S
Zr87         O95   2.376       .  S
Zr87         O96   2.383       .  S
Zr88        O107   2.437       .  S
Zr88        O100   2.435       .  S
Zr88        O101   2.474       .  S
Zr88         O94   2.397       .  S
Zr88         O95   2.405       .  S
Zr89         O91   2.435       .  S
Zr89        O113   2.436       .  S
Zr89        O115   2.442       .  S
Zr89         O93   2.402       .  S
Zr89         O96   2.394   1_455  S
Zr90        O116   2.433   1_655  S
Zr90        O117   2.435   1_655  S
Zr90         O92   2.437       .  S
Zr90         O93   2.388   1_655  S
Zr90         O94   2.385       .  S
O91         H128   0.990       .  S
O92         H123   0.991       .  S
O92         H137   0.990       .  S
O94         H120   0.966       .  S
O95        Zr105   2.379       .  S
O96        Zr105   2.374       .  S
O96         H121   0.966   1_655  S
C97         C514   1.487       .  S
C98         C626   1.490       .  S
C99         C570   1.477       .  S
O100        H136   0.990       .  S
O101        C103   1.291       .  A
O102        C103   1.279       .  A
C103        C402   1.505       .  S
O104       Zr105   2.438       .  S
O104        H133   0.990       .  S
Zr105       O108   2.437       .  S
Zr105       O109   2.441       .  S
Zr105       O110   2.428       .  S
O106        C111   1.284       .  A
O107        H124   0.990       .  S
O107        H139   0.990       .  S
O108        H125   0.990       .  S
O109        H129   0.990       .  S
O109        H138   0.990       .  S
O110        C111   1.282       .  A
C111        C357   1.489       .  S
O112        H131   0.989       .  S
O112        H135   0.990       .  S
O113        H127   0.990       .  S
O113        H134   0.990       .  S
O114        C118   1.276       .  A
O115        C118   1.288       .  A
O116        H126   0.990       .  S
O117        H130   0.990       .  S
C118        C276   1.484       .  S
Zr141       O142   2.441       .  S
Zr141       O143   2.430       .  S
Zr141       O144   2.429       .  S
Zr141       O147   2.444       .  S
Zr141       O149   2.384       .  S
Zr141       O150   2.380   1_556  S
Zr141       O151   2.409       .  S
Zr141       O152   2.393   1_556  S
O142        H198   0.990       .  S
O142        H206   0.990       .  S
O143        C163   1.282       .  A
O144        C165   1.282       .  A
O145       Zr155   2.450       .  S
O145        C164   1.287       .  A
O146       Zr154   2.460       .  S
O146        C165   1.290       .  A
O147        C164   1.286   1_556  A
O148       Zr156   2.424       .  S
O148        C163   1.281   1_554  A
O149       Zr154   2.410       .  S
O149       Zr156   2.373   1_556  S
O150       Zr155   2.385       .  S
O150       Zr156   2.382       .  S
O150        H185   0.965       .  S
O151       Zr154   2.412       .  S
O151       Zr171   2.387       .  S
O151        H188   0.965       .  S
O152       Zr155   2.387       .  S
O152       Zr171   2.380   1_554  S
Zr153       O178   2.444       .  S
Zr153       O172   2.466       .  S
Zr153       O180   2.448       .  S
Zr153       O168   2.445       .  S
Zr153       O159   2.407       .  S
Zr153       O160   2.419       .  S
Zr153       O161   2.378   1_554  S
Zr153       O162   2.388       .  S
Zr154       O173   2.436       .  S
Zr154       O166   2.435       .  S
Zr154       O167   2.481       .  S
Zr154       O160   2.404   1_556  S
Zr154       O161   2.399       .  S
Zr155       O157   2.436       .  S
Zr155       O179   2.442       .  S
Zr155       O181   2.435       .  S
Zr155       O159   2.389       .  S
Zr155       O162   2.407       .  S
Zr156       O182   2.437       .  S
Zr156       O183   2.438       .  S
Zr156       O158   2.442       .  S
Zr156       O159   2.392       .  S
Zr156       O160   2.398       .  S
O157        H194   0.990       .  S
O158        H189   0.989       .  S
O158        H203   0.990   1_554  S
O160        H186   0.963       .  S
O161       Zr171   2.390       .  S
O162       Zr171   2.387   1_554  S
O162        H187   0.965       .  S
C163        C458   1.502       .  S
C164        C528   1.495       .  S
C165        C584   1.489       .  S
O166        H202   0.990       .  S
O167        C169   1.292   1_556  A
O168        C169   1.285       .  A
C169        C374   1.501       .  S
O170       Zr171   2.437       .  S
O170        H199   0.990       .  S
Zr171       O174   2.434       .  S
Zr171       O175   2.438   1_556  S
Zr171       O176   2.402   1_556  S
O172        C177   1.289       .  A
O173        H190   0.990       .  S
O173        H205   0.990       .  S
O174        H191   0.990       .  S
O175        H195   0.990       .  S
O175        H204   0.989       .  S
O176        C177   1.277       .  A
C177        C318   1.499       .  S
O178        H197   0.990       .  S
O178        H201   0.990       .  S
O179        H193   0.990       .  S
O179        H200   0.990       .  S
O180        C184   1.287       .  A
O181        C184   1.284       .  A
O182        H192   0.990       .  S
O183        H196   0.989       .  S
C184        C290   1.503       .  S
Zr207       O208   2.441       .  S
Zr207       O209   2.442       .  S
Zr207       O210   2.440       .  S
Zr207       O213   2.421       .  S
Zr207       O215   2.372   1_565  S
Zr207       O216   2.385       .  S
Zr207       O217   2.411       .  S
Zr207       O218   2.404       .  S
O208        H264   0.990       .  S
O208        H272   0.988       .  S
O209        C229   1.283       .  A
O210        C231   1.285       .  A
O211       Zr221   2.475       .  S
O211        C230   1.294       .  A
O212       Zr220   2.455       .  S
O212        C231   1.287   1_545  A
O213        C230   1.282       .  A
O214       Zr222   2.410   1_565  S
O214        C229   1.278       .  A
O215       Zr220   2.407       .  S
O215       Zr222   2.390       .  S
O216       Zr221   2.405       .  S
O216       Zr222   2.378   1_565  S
O216        H251   0.965       .  S
O217       Zr220   2.401   1_565  S
O217       Zr237   2.390       .  S
O217        H254   0.964       .  S
O218       Zr221   2.392       .  S
O218       Zr237   2.386       .  S
Zr219       O244   2.443       .  S
Zr219       O238   2.434       .  S
Zr219       O246   2.427       .  S
Zr219       O234   2.443       .  S
Zr219       O225   2.403       .  S
Zr219       O226   2.404       .  S
Zr219       O227   2.382       .  S
Zr219       O228   2.386   1_545  S
Zr220       O239   2.437       .  S
Zr220       O232   2.435       .  S
Zr220       O233   2.437       .  S
Zr220       O226   2.408       .  S
Zr220       O227   2.407       .  S
Zr221       O223   2.433       .  S
Zr221       O245   2.441       .  S
Zr221       O247   2.472       .  S
Zr221       O225   2.397   1_565  S
Zr221       O228   2.398       .  S
Zr222       O248   2.435   1_545  S
Zr222       O249   2.434       .  S
Zr222       O224   2.436       .  S
Zr222       O225   2.394       .  S
Zr222       O226   2.384       .  S
O223        H260   0.990       .  S
O224        H255   0.990       .  S
O224        H269   0.990       .  S
O226        H252   0.962       .  S
O227       Zr237   2.386   1_545  S
O228       Zr237   2.377       .  S
O228        H253   0.966       .  S
C229        C483   1.484       .  S
C230        C598   1.504       .  S
C231        C654   1.503       .  S
O232        H268   0.990       .  S
O233        C235   1.284       .  A
O234        C235   1.284       .  A
C235        C301   1.480       .  S
O236       Zr237   2.435       .  S
O236        H265   0.991       .  S
Zr237       O240   2.435       .  S
Zr237       O241   2.434       .  S
Zr237       O242   2.418       .  S
O238        C243   1.284       .  A
O239        H256   0.990       .  S
O239        H271   0.990       .  S
O240        H257   0.990       .  S
O241        H261   0.988       .  S
O241        H270   0.989       .  S
O242        C243   1.280   1_565  A
C243        C329   1.485       .  S
O244        H263   0.991       .  S
O244        H267   0.991       .  S
O245        H259   0.990       .  S
O245        H266   0.989       .  S
O246        C250   1.282   1_545  A
O247        C250   1.292       .  A
O248        H258   0.990       .  S
O249        H262   0.990       .  S
C250        C416   1.498   1_565  S
C273        C274   1.453       .  A
C273        C278   1.440       .  A
C274        C275   1.410       .  A
C274        C279   1.452       .  S
C275        C276   1.399       .  A
C275        C282   1.459       .  S
C276        C277   1.409       .  A
C277        C278   1.416       .  A
C277        C280   1.454       .  S
C278        C281   1.451       .  S
C279        N286   1.159       .  T
C280        N285   1.157       .  T
C281        N283   1.157       .  T
C282        N284   1.157       .  T
C287        C288   1.447       .  A
C287        C292   1.451       .  A
C288        C289   1.419       .  A
C288        C293   1.449       .  S
C289        C290   1.405       .  A
C289        C296   1.456       .  S
C290        C291   1.406       .  A
C291        C292   1.422       .  A
C291        C294   1.457       .  S
C292        C295   1.447       .  S
C293        N300   1.158       .  T
C294        N299   1.158       .  T
C295        N297   1.158       .  T
C296        N298   1.157       .  T
C301        C302   1.394       .  A
C301        C306   1.396       .  A
C302        C303   1.418       .  A
C302        C307   1.453       .  S
C303        C304   1.456       .  A
C303        C310   1.445       .  S
C304        C305   1.447       .  A
C305        C306   1.409       .  A
C305        C308   1.444       .  S
C306        C309   1.456       .  S
C307        N314   1.157       .  T
C308        N313   1.157       .  T
C309        N311   1.157       .  T
C310        N312   1.158       .  T
C315        C316   1.449       .  A
C315        C320   1.439       .  A
C316        C317   1.423       .  A
C316        C321   1.444       .  S
C317        C318   1.406       .  A
C317        C324   1.455       .  S
C318        C319   1.402       .  A
C319        C320   1.409       .  A
C319        C322   1.442       .  S
C320        C323   1.448       .  S
C321        N328   1.157       .  T
C322        N327   1.154       .  T
C323        N325   1.158   1_554  T
C324        N326   1.157       .  T
C329        C330   1.399   1_545  A
C329        C334   1.397       .  A
C330        C331   1.418       .  A
C330        C335   1.456       .  S
C331        C332   1.447   1_565  A
C331        C338   1.445       .  S
C332        C333   1.453       .  A
C333        C334   1.417       .  A
C333        C336   1.448       .  S
C334        C337   1.457       .  S
C335        N342   1.157       .  T
C336        N341   1.157       .  T
C337        N339   1.157       .  T
C338        N340   1.157       .  T
C343        C344   1.418       .  A
C343        C348   1.398   1_545  A
C344        C345   1.420       .  A
C344        C349   1.455       .  S
C345        C346   1.440       .  A
C345        C352   1.450       .  S
C346        C347   1.441   1_545  A
C347        C348   1.401       .  A
C347        C350   1.445       .  S
C348        C351   1.454   1_554  S
C349        N356   1.157       .  T
C350        N355   1.156       .  T
C351        N353   1.157       .  T
C352        N354   1.157       .  T
C357        C358   1.405       .  A
C357        C362   1.407   1_655  A
C358        C359   1.414       .  A
C358        C363   1.454       .  S
C359        C360   1.443       .  A
C359        C366   1.452       .  S
C360        C361   1.436   1_655  A
C361        C362   1.414       .  A
C361        C364   1.451       .  S
C362        C365   1.451       .  S
C363        N370   1.157       .  T
C364        N369   1.158       .  T
C365        N367   1.157       .  T
C366        N368   1.157       .  T
C371        C372   1.443       .  A
C371        C376   1.442       .  A
C372        C373   1.415       .  A
C372        C377   1.450       .  S
C373        C374   1.395       .  A
C373        C380   1.451   1_554  S
C374        C375   1.405       .  A
C375        C376   1.429       .  A
C375        C378   1.453       .  S
C376        C379   1.445       .  S
C377        N384   1.158       .  T
C378        N383   1.157       .  T
C379        N381   1.158       .  T
C380        N382   1.158       .  T
C385        C386   1.412       .  A
C385        C390   1.403       .  A
C386        C387   1.424       .  A
C386        C391   1.452   1_554  S
C387        C388   1.444       .  A
C387        C394   1.455   1_654  S
C388        C389   1.447       .  A
C389        C390   1.408       .  A
C389        C392   1.454   1_655  S
C390        C393   1.456       .  S
C391        N398   1.157       .  T
C392        N397   1.158       .  T
C393        N395   1.157       .  T
C394        N396   1.158       .  T
C399        C400   1.437       .  A
C399        C404   1.436       .  A
C400        C401   1.412       .  A
C400        C405   1.449   1_655  S
C401        C402   1.412       .  A
C401        C408   1.458       .  S
C402        C403   1.409       .  A
C403        C404   1.423       .  A
C403        C406   1.450       .  S
C404        C407   1.440       .  S
C405        N412   1.157       .  T
C406        N411   1.157       .  T
C407        N409   1.155       .  T
C408        N410   1.157       .  T
C413        C414   1.447       .  A
C413        C418   1.450       .  A
C414        C415   1.421   1_545  A
C414        C419   1.450       .  S
C415        C416   1.402   1_565  A
C415        C422   1.453       .  S
C416        C417   1.404       .  A
C417        C418   1.423       .  A
C417        C420   1.453       .  S
C418        C421   1.453       .  S
C419        N426   1.158       .  T
C420        N425   1.157       .  T
C421        N423   1.158       .  T
C422        N424   1.157       .  T
C427        C428   1.452       .  A
C427        C432   1.442   1_545  A
C428        C429   1.408       .  A
C428        C433   1.452       .  S
C429        C430   1.394   1_545  A
C429        C436   1.458       .  S
C430        C431   1.403       .  A
C431        C432   1.416       .  A
C431        C434   1.452       .  S
C432        C435   1.454   1_655  S
C433        N440   1.158       .  T
C434        N439   1.157       .  T
C435        N437   1.158       .  T
C436        N438   1.157       .  T
C441        C442   1.437       .  A
C441        C446   1.436   1_556  A
C442        C443   1.414   1_556  A
C442        C447   1.453       .  S
C443        C444   1.428       .  A
C443        C450   1.449   1_564  S
C444        C445   1.438       .  A
C445        C446   1.426       .  A
C445        C448   1.450       .  S
C446        C449   1.444       .  S
C447        N454   1.158       .  T
C448        N453   1.158       .  T
C449        N451   1.158       .  T
C450        N452   1.157       .  T
C455        C456   1.436   1_556  A
C455        C460   1.441       .  A
C456        C457   1.411       .  A
C456        C461   1.445       .  S
C457        C458   1.411   1_554  A
C457        C464   1.454       .  S
C458        C459   1.414       .  A
C459        C460   1.414       .  A
C459        C462   1.455       .  S
C460        C463   1.450       .  S
C461        N468   1.157       .  T
C462        N467   1.157       .  T
C463        N465   1.157       .  T
C464        N466   1.158       .  T
C469        C470   1.434       .  A
C469        C474   1.448   1_556  A
C470        C471   1.396       .  A
C470        C475   1.454       .  S
C471        C472   1.406   1_556  A
C471        C478   1.453       .  S
C472        C473   1.407       .  A
C473        C474   1.424       .  A
C473        C476   1.452       .  S
C474        C477   1.450       .  S
C475        N482   1.158       .  T
C476        N481   1.157       .  T
C477        N479   1.158       .  T
C478        N480   1.157       .  T
C483        C484   1.402       .  A
C483        C488   1.401       .  A
C484        C485   1.415       .  A
C484        C489   1.452   1_565  S
C485        C486   1.449       .  A
C485        C492   1.456       .  S
C486        C487   1.450       .  A
C487        C488   1.416       .  A
C487        C490   1.452       .  S
C488        C491   1.459       .  S
C489        N496   1.157       .  T
C490        N495   1.158       .  T
C491        N493   1.158       .  T
C492        N494   1.158   1_565  T
C497        C498   1.441   1_554  A
C497        C502   1.442       .  A
C498        C499   1.410   1_556  A
C498        C503   1.447       .  S
C499        C500   1.409       .  A
C499        C506   1.450       .  S
C500        C501   1.448       .  A
C501        C502   1.441       .  A
C501        C504   1.451       .  S
C502        C505   1.453       .  S
C503        N510   1.158       .  T
C504        N509   1.158       .  T
C505        N507   1.157       .  T
C506        N508   1.158       .  T
C511        C512   1.448       .  A
C511        C516   1.456       .  A
C512        C513   1.412       .  A
C512        C517   1.448       .  S
C513        C514   1.396       .  A
C513        C520   1.458       .  S
C514        C515   1.399       .  A
C515        C516   1.420       .  A
C515        C518   1.454       .  S
C516        C519   1.453       .  S
C517        N524   1.157   1_655  T
C518        N523   1.156       .  T
C519        N521   1.159       .  T
C520        N522   1.157   1_655  T
C525        C526   1.453   1_556  A
C525        C530   1.451       .  A
C526        C527   1.427       .  A
C526        C531   1.449       .  S
C527        C528   1.401       .  A
C527        C534   1.454       .  S
C528        C529   1.396       .  A
C529        C530   1.417   1_554  A
C529        C532   1.457       .  S
C530        C533   1.448       .  S
C531        N538   1.158       .  T
C532        N537   1.157       .  T
C533        N535   1.157       .  T
C534        N536   1.157       .  T
C539        C540   1.447       .  A
C539        C544   1.439   1_556  A
C540        C541   1.422       .  A
C540        C545   1.450       .  S
C541        C542   1.415       .  A
C541        C548   1.453       .  S
C542        C543   1.413   1_556  A
C543        C544   1.413       .  A
C543        C546   1.456       .  S
C544        C547   1.436       .  S
C545        N552   1.158       .  T
C546        N551   1.157       .  T
C547        N549   1.153       .  T
C548        N550   1.157       .  T
C553        C554   1.420       .  A
C553        C558   1.451       .  A
C554        C555   1.417       .  A
C554        C559   1.453       .  S
C555        C556   1.433       .  A
C555        C562   1.448       .  S
C556        C557   1.430       .  A
C557        C558   1.425       .  A
C557        C560   1.459       .  S
C558        C561   1.452       .  S
C559        N566   1.157       .  T
C560        N565   1.159       .  T
C561        N563   1.158       .  T
C562        N564   1.157       .  T
C567        C568   1.447       .  A
C567        C572   1.448       .  A
C568        C569   1.408       .  A
C568        C573   1.448       .  S
C569        C570   1.400       .  A
C569        C576   1.459       .  S
C570        C571   1.399       .  A
C571        C572   1.420       .  A
C571        C574   1.452       .  S
C572        C575   1.446       .  S
C573        N580   1.157       .  T
C574        N579   1.157       .  T
C575        N577   1.157       .  T
C576        N578   1.157       .  T
C581        C582   1.452       .  A
C581        C586   1.452       .  A
C582        C583   1.414       .  A
C582        C587   1.449       .  S
C583        C584   1.397       .  A
C583        C590   1.455       .  S
C584        C585   1.400       .  A
C585        C586   1.425       .  A
C585        C588   1.455       .  S
C586        C589   1.446       .  S
C587        N594   1.158       .  T
C588        N593   1.157       .  T
C589        N591   1.157       .  T
C590        N592   1.157       .  T
C595        C596   1.452       .  A
C595        C600   1.444       .  A
C596        C597   1.424       .  A
C596        C601   1.450       .  S
C597        C598   1.405       .  A
C597        C604   1.455       .  S
C598        C599   1.410       .  A
C599        C600   1.418       .  A
C599        C602   1.455       .  S
C600        C603   1.452       .  S
C601        N608   1.158       .  T
C602        N607   1.157       .  T
C603        N605   1.157       .  T
C604        N606   1.157       .  T
C609        C610   1.415       .  A
C609        C614   1.454       .  A
C610        C611   1.409       .  A
C610        C615   1.447       .  S
C611        C612   1.446       .  A
C611        C618   1.444       .  S
C612        C613   1.428       .  A
C613        C614   1.410       .  A
C613        C616   1.446   1_655  S
C614        C617   1.445       .  S
C615        N622   1.158       .  T
C616        N621   1.158       .  T
C617        N619   1.158       .  T
C618        N620   1.158       .  T
C623        C624   1.450       .  A
C623        C628   1.447       .  A
C624        C625   1.412       .  A
C624        C629   1.454       .  S
C625        C626   1.399       .  A
C625        C632   1.455       .  S
C626        C627   1.405       .  A
C627        C628   1.423       .  A
C627        C630   1.453       .  S
C628        C631   1.456       .  S
C629        N636   1.158       .  T
C630        N635   1.157       .  T
C631        N633   1.158       .  T
C632        N634   1.157       .  T
C637        C638   1.449       .  A
C637        C642   1.432       .  A
C638        C639   1.420       .  A
C638        C643   1.454   1_655  S
C639        C640   1.404       .  A
C639        C646   1.449   1_655  S
C640        C641   1.401       .  A
C641        C642   1.394       .  A
C641        C644   1.454       .  S
C642        C645   1.451       .  S
C643        N650   1.158       .  T
C644        N649   1.157   1_565  T
C645        N647   1.158       .  T
C646        N648   1.157       .  T
C651        C652   1.431       .  A
C651        C656   1.443       .  A
C652        C653   1.397       .  A
C652        C657   1.450       .  S
C653        C654   1.404       .  A
C653        C660   1.451       .  S
C654        C655   1.410       .  A
C655        C656   1.430       .  A
C655        C658   1.452   1_565  S
C656        C659   1.447   1_565  S
C657        N664   1.158       .  T
C658        N663   1.157       .  T
C659        N661   1.157       .  T
C660        N662   1.157       .  T
