geometry optimzed in LAMMPS
_audit_creation_date              2020-11-30 
_audit_creation_method            'lammps2cif' 
_symmetry_space_group_name_H-M    'P1' 
_symmetry_Int_Tables_number       1 
_symmetry_cell_setting            triclinic 
loop_ 
_symmetry_equiv_pos_as_xyz 
  x,y,z 
_cell_length_a                    37.377747533978486 
_cell_length_b                    36.986935099622215 
_cell_length_c                    29.942446588483996 
_cell_angle_alpha                 89.95970610402348 
_cell_angle_beta                  91.59796715570384 
_cell_angle_gamma                 121.18744260507783 
loop_ 
_atom_site_label 
_atom_site_type_symbol 
_atom_site_fract_x 
_atom_site_fract_y 
_atom_site_fract_z 
_atom_site_charge 
C1          C  0.50946247  0.89386779  0.47514203     0.03410
C2          C  0.50746787  0.90903235  0.51724244    -0.12740
C3          C  0.51372907  0.89202383  0.05605266     0.00910
C4          C  0.52298287  0.86012974  0.05311760    -0.11260
C5          C  0.52473436  0.84340572  0.01123669     0.03410
C6          C  0.51722185  0.86056108  0.47225761    -0.10680
H7          H  0.50334287  0.93588240  0.51995598     0.09000
H8          H  0.53139223  0.85092073  0.08402384     0.06530
H9          H  0.51869396  0.84966877  0.43935510     0.06380
C10         C  0.32743072  0.94228639  0.46364521     0.03410
C11         C  0.34850704  0.95809610  0.00492952    -0.12740
C12         C  0.32930693  0.93999892  0.04478384     0.00910
C13         C  0.28923166  0.90385716  0.04390332    -0.11260
C14         C  0.26661760  0.88729365  0.00294035     0.03410
C15         C  0.28563098  0.90857242  0.46314313    -0.10680
H16         H  0.38090862  0.98371924  0.50640143     0.09000
H17         H  0.27693674  0.88858568  0.07525205     0.06530
H18         H  0.26866211  0.89853092  0.43137809     0.06380
O19         O  0.53978666  0.05133790  0.36416660    -0.79850
O20         O  0.60931697  0.11508558  0.19202575    -0.79880
O21         O  0.49111629  0.98817828  0.22025513    -0.79880
O22         O  0.60599047  0.16402809  0.29124460    -0.79830
O23         O  0.55635837  0.03132731  0.20763446    -0.79950
O24         O  0.59885584  0.10171755  0.30363138    -0.79870
O25         O  0.60284594  0.17024814  0.20005019    -0.79850
O26         O  0.52400799  0.01224269  0.30309783    -0.79890
C27         C  0.53097703  0.01685017  0.34570676     1.09840
C28         C  0.62260403  0.15361116  0.18540594     1.09720
C29         C  0.52496364  0.99460905  0.20424723     1.09860
C30         C  0.62044704  0.14162705  0.30713070     1.09740
O31         O  0.54633289  0.12570562  0.34272476    -0.79850
O32         O  0.48778637  0.03584581  0.16391991    -0.79930
O33         O  0.44292589  0.98615256  0.29034856    -0.79870
O34         O  0.51602940  0.14192973  0.20060512    -0.79850
O35         O  0.54064783  0.11905563  0.14868868    -0.79900
O36         O  0.47467013  0.05001606  0.32080787    -0.79860
O37         O  0.51647169  0.14028612  0.28937244    -0.79820
O38         O  0.45300835  0.03853615  0.22107146    -0.79890
Co39       Co  0.53830571  0.07523271  0.30839323     1.51530
Co40       Co  0.54861322  0.07557604  0.18170181     1.51690
Co41       Co  0.49013898  0.03046590  0.26208705     1.51570
Co42       Co  0.55850398  0.15052927  0.24585063     1.51470
O43         O  0.53707766  0.08792459  0.24339396    -1.41790
C44         C  0.52910666  0.14549783  0.32912772     1.09760
C45         C  0.45392169  0.02935014  0.18064330     1.09850
C46         C  0.44368890  0.01124616  0.31981601     1.09790
C47         C  0.52208292  0.13830755  0.16007225     1.09770
C48         C  0.52936288  0.26210446  0.44967478     0.03410
C49         C  0.53137472  0.24329520  0.98905829    -0.12740
C50         C  0.51197158  0.24517587  0.02718493     0.00910
C51         C  0.49372413  0.27018601  0.02723420    -0.11260
C52         C  0.49542356  0.29371711  0.98903719     0.03410
C53         C  0.51254282  0.28824976  0.44979236    -0.10680
H54         H  0.54467632  0.22327298  0.98881902     0.09000
H55         H  0.47776407  0.27052499  0.05668064     0.06530
H56         H  0.51308655  0.30376103  0.41905843     0.06380
C57         C  0.73603113  0.21473300  0.45655576     0.03410
C58         C  0.77785698  0.24775692  0.45850224    -0.12740
C59         C  0.79652982  0.27081396  0.49866621     0.00910
C60         C  0.77310242  0.25689450  0.03790582    -0.11260
C61         C  0.73204160  0.22183158  0.03681140     0.03410
C62         C  0.71390318  0.20074460  0.49599277    -0.10680
H63         H  0.79455430  0.25638800  0.42771328     0.09000
H64         H  0.78531986  0.27449878  0.06899112     0.06530
H65         H  0.68160449  0.17489192  0.49448078     0.06380
O66         O  0.06023430  0.65489460  0.29652877    -0.79850
O67         O  0.99307842  0.60519541  0.18526192    -0.79880
O68         O  0.08770883  0.65798507  0.20452251    -0.79880
O69         O  0.93364361  0.53322753  0.28253958    -0.79830
O70         O  0.06242684  0.62882335  0.13780116    -0.79950
O71         O  0.97651889  0.60111865  0.29461217    -0.79870
O72         O  0.94552780  0.53750262  0.19162661    -0.79850
O73         O  0.11535497  0.65160239  0.29018963    -0.79890
C74         C  0.09799323  0.66964450  0.30685613     1.09840
C75         C  0.95719018  0.57366883  0.17521642     1.09720
C76         C  0.08388946  0.66186079  0.16198784     1.09860
C77         C  0.94072781  0.56851207  0.29820165     1.09740
O78         O  0.98642495  0.53971086  0.34224637    -0.79850
O79         O  0.08553120  0.57914853  0.18034211    -0.79930
O80         O  0.09143544  0.56693707  0.27623240    -0.79870
O81         O  0.99618787  0.49838901  0.20466566    -0.79850
O82         O  0.00621324  0.54148796  0.15057184    -0.79900
O83         O  0.07102312  0.58671683  0.33547602    -0.79860
O84         O  0.98451514  0.49495455  0.29314691    -0.79820
O85         O  0.14091345  0.62909315  0.21753401    -0.79890
Co86       Co  0.02397505  0.59552009  0.31350708     1.51530
Co87       Co  0.03945148  0.59424557  0.18848591     1.51690
Co88       Co  0.08652504  0.60862625  0.24016641     1.51570
Co89       Co  0.96860233  0.51894916  0.24313135     1.51470
O90         O  0.02417271  0.57478545  0.25155940    -1.41790
C91         C  0.97792890  0.50290949  0.33181656     1.09760
C92         C  0.12558394  0.60231927  0.18581270     1.09850
C93         C  0.09124544  0.57114027  0.31814955     1.09790
C94         C  0.99493178  0.50464027  0.16370915     1.09770
C95         C  0.19281489  0.56077876  0.45792671     0.03410
C96         C  0.18197200  0.57184779  0.99772650    -0.12740
C97         C  0.20335741  0.57513801  0.03799546     0.00910
C98         C  0.23590020  0.56661767  0.03835668    -0.11260
C99         C  0.24667227  0.55363282  0.99893063     0.03410
C100        C  0.22339004  0.54964203  0.45895602    -0.10680
H101        H  0.15705933  0.57871375  0.49706726     0.09000
H102        H  0.25313179  0.57160956  0.06951108     0.06530
H103        H  0.22911268  0.53910188  0.42787257     0.06380
C104        C  0.88626786  0.37593867  0.45855736     0.03410
C105        C  0.85093505  0.33534039  0.45831524    -0.12740
C106        C  0.83756012  0.31209087  0.49824728     0.00910
C107        C  0.86205123  0.33064294  0.03799652    -0.11260
C108        C  0.89661639  0.37229048  0.03813647     0.03410
C109        C  0.90832978  0.39427501  0.49829739    -0.10680
H110        H  0.83357409  0.32337165  0.42700717     0.09000
H111        H  0.85427048  0.31335275  0.06882497     0.06530
H112        H  0.93487712  0.42646946  0.49817929     0.06380
C113        C  0.84424624  0.56700465  0.44589152     0.03410
C114        C  0.86045116  0.56041683  0.98563463    -0.12740
C115        C  0.85302439  0.57264256  0.02713005     0.00910
C116        C  0.82716001  0.58963136  0.02835611    -0.11260
C117        C  0.80697895  0.59268621  0.98911852     0.03410
C118        C  0.81572277  0.58067580  0.44780887    -0.10680
H119        H  0.88221340  0.54942463  0.98370886     0.09000
H120        H  0.82462269  0.60227056  0.05987549     0.06530
H121        H  0.80267857  0.58392672  0.41654341     0.06380
C122        C  0.16992463  0.78530278  0.45883984     0.03410
C123        C  0.20977517  0.82201976  0.46171427    -0.12740
C124        C  0.22448301  0.84714611  0.50124602     0.00910
C125        C  0.19974186  0.83192407  0.03955566    -0.11260
C126        C  0.16136084  0.79340357  0.03814756     0.03410
C127        C  0.14572974  0.77212765  0.49715701    -0.10680
H128        H  0.22961484  0.82991686  0.43335160     0.09000
H129        H  0.21009339  0.84899100  0.07105667     0.06530
H130        H  0.11543249  0.74321580  0.49596316     0.06380
O131        O  0.54016995  0.54984464  0.14904131    -0.79850
O132        O  0.47653971  0.56397802  0.31644965    -0.79880
O133        O  0.50412721  0.49711948  0.28468719    -0.79880
O134        O  0.45928592  0.56094330  0.21485940    -0.79830
O135        O  0.53266059  0.54106184  0.33998448    -0.79950
O136        O  0.50287512  0.59507022  0.16129249    -0.79870
O137        O  0.45978367  0.60788899  0.28598405    -0.79850
O138        O  0.50811571  0.50041259  0.19874765    -0.79890
C139        C  0.51630797  0.51111212  0.15896636     1.09840
C140        C  0.45225084  0.57939432  0.31429412     1.09720
C141        C  0.50786266  0.50361931  0.32578550     1.09860
C142        C  0.46561344  0.57275006  0.17456413     1.09740
O143        O  0.57757383  0.66029454  0.21147755    -0.79850
O144        O  0.60311095  0.61851573  0.30691349    -0.79930
O145        O  0.59828546  0.55177310  0.19952687    -0.79870
O146        O  0.54246340  0.65020741  0.30494110    -0.79850
O147        O  0.54692505  0.61759993  0.36434503    -0.79900
O148        O  0.61564670  0.61743239  0.19613198    -0.79860
O149        O  0.51614395  0.65063047  0.21905211    -0.79820
O150        O  0.59756958  0.55696775  0.29444416    -0.79890
Co151      Co  0.55876015  0.60515423  0.18304069     1.51530
Co152      Co  0.54146350  0.59245867  0.30758243     1.51690
Co153      Co  0.55125268  0.52987947  0.24506757     1.51570
Co154      Co  0.50166687  0.60124089  0.25965656     1.51470
O155        O  0.53927916  0.57838963  0.24282098    -1.41790
C156        C  0.55296831  0.67343629  0.20532499     1.09760
C157        C  0.61779606  0.59458214  0.31130325     1.09850
C158        C  0.62218412  0.58883568  0.18483786     1.09790
C159        C  0.54805564  0.64948845  0.34773889     1.09770
C160        C  0.47364194  0.37682945  0.03305298     0.03410
C161        C  0.48242877  0.34438660  0.03160396    -0.12740
C162        C  0.48024958  0.32416184  0.99060094     0.00910
C163        C  0.46948872  0.33808569  0.45099534    -0.11260
C164        C  0.46109090  0.37087204  0.45280632     0.03410
C165        C  0.45851250  0.38625438  0.99457173    -0.10680
H166        H  0.49442831  0.33782146  0.06185160     0.09000
H167        H  0.47062541  0.32628612  0.41843003     0.06530
H168        H  0.45302816  0.41233371  0.99591374     0.06380
C169        C  0.33889233  0.54128010  0.03839345     0.03410
C170        C  0.30248053  0.54352575  0.03906246    -0.12740
C171        C  0.28347066  0.54709480  0.49875479     0.00910
C172        C  0.30222250  0.54771946  0.45798057    -0.11260
C173        C  0.33837422  0.54530092  0.45707573     0.03410
C174        C  0.35567966  0.54110249  0.49728996    -0.10680
H175        H  0.29044214  0.54374507  0.07131813     0.09000
H176        H  0.29051029  0.55204727  0.42642537     0.06530
H177        H  0.38470006  0.54111194  0.99702873     0.06380
C178        C  0.73495480  0.62720791  0.03602649     0.03410
C179        C  0.75936364  0.60873650  0.03180411    -0.12740
C180        C  0.77943716  0.61099071  0.49162515     0.00910
C181        C  0.77059728  0.62821320  0.45366025    -0.11260
C182        C  0.74303394  0.64304529  0.45583807     0.03410
C183        C  0.72962845  0.64703741  0.99819869    -0.10680
H184        H  0.76070263  0.59051168  0.05933615     0.09000
H185        H  0.78202509  0.62727551  0.42126800     0.06530
H186        H  0.70911102  0.65954026  0.99979077     0.06380
C187        C  0.56810788  0.77499899  0.05102740     0.03410
C188        C  0.54274231  0.79292577  0.04819605    -0.12740
C189        C  0.54009874  0.81296319  0.50910187     0.00910
C190        C  0.55309349  0.80367581  0.46909521    -0.11260
C191        C  0.57507357  0.78244467  0.47040570     0.03410
C192        C  0.58869016  0.77582259  0.01191854    -0.10680
H193        H  0.52397492  0.79047004  0.07591466     0.09000
H194        H  0.54494277  0.81070043  0.43675497     0.06530
H195        H  0.61146179  0.76636544  0.01165114     0.06380
C196        C  0.39809556  0.58954162  0.34947175    -0.11980
C197        C  0.41688553  0.56513760  0.34535122     0.05020
C198        C  0.40456891  0.53090390  0.37464995    -0.07270
C199        C  0.37582470  0.52301689  0.40766889    -0.08010
C200        C  0.36077460  0.55013252  0.41496391    -0.02570
C201        C  0.37151149  0.58355366  0.38477070     0.04250
N202        N  0.35966305  0.61432049  0.39183230     0.66760
H203        H  0.40731680  0.61624359  0.32782683     0.15660
H204        H  0.36766802  0.49708253  0.43019865     0.15370
N205        N  0.42385845  0.50627300  0.37497183     0.74460
O206        O  0.36618441  0.63227114  0.42955554    -0.38990
O207        O  0.34942507  0.62869915  0.35884595    -0.38930
O208        O  0.45785241  0.52032987  0.39700961    -0.39640
O209        O  0.40135599  0.46701028  0.36746885    -0.39700
C210        C  0.38995757  0.52937182  0.14656864    -0.11980
C211        C  0.43049115  0.56506918  0.14301253     0.05020
C212        C  0.43726890  0.59410237  0.10872904    -0.07270
C213        C  0.40507161  0.58652651  0.07865206    -0.08010
C214        C  0.36600886  0.54918873  0.07907545    -0.02570
C215        C  0.35758639  0.52012820  0.11422739     0.04250
N216        N  0.31780602  0.48106681  0.11717894     0.66760
H217        H  0.38418108  0.50756430  0.17341017     0.15660
H218        H  0.41173337  0.60912328  0.05228544     0.15370
N219        N  0.47725563  0.63102006  0.10229103     0.74460
O220        O  0.30927469  0.45914629  0.15198928    -0.38990
O221        O  0.29157491  0.46718078  0.08478536    -0.38930
O222        O  0.50406348  0.62723930  0.08149609    -0.39640
O223        O  0.48081218  0.66680747  0.10460139    -0.39700
C224        C  0.58782671  0.72633451  0.36983823    -0.11980
C225        C  0.55490272  0.68477447  0.37729089     0.05020
C226        C  0.52770848  0.67736489  0.41263627    -0.07270
C227        C  0.53390331  0.71123834  0.43912940    -0.08010
C228        C  0.56813403  0.75218523  0.43390212    -0.02570
C229        C  0.59556387  0.76036948  0.39844008     0.04250
N230        N  0.63113307  0.80204698  0.39126210     0.66760
H231        H  0.60816550  0.73192568  0.34228537     0.15660
H232        H  0.51301796  0.70502327  0.46638862     0.15370
N233        N  0.49369135  0.63584194  0.42269622     0.74460
O234        O  0.65929827  0.80704563  0.36521519    -0.38990
O235        O  0.63393627  0.83432265  0.40921643    -0.38930
O236        O  0.50119780  0.60731328  0.43311856    -0.39640
O237        O  0.45904432  0.63114715  0.43306564    -0.39700
C238        C  0.58205711  0.70286434  0.13334732    -0.11980
C239        C  0.56371944  0.70658646  0.17166425     0.05020
C240        C  0.55202651  0.73713988  0.17300229    -0.07270
C241        C  0.55747888  0.76153539  0.13456911    -0.08010
C242        C  0.57008687  0.75322354  0.09328558    -0.02570
C243        C  0.58242157  0.72265666  0.09368663     0.04250
N244        N  0.59072579  0.70686345  0.05407867     0.66760
H245        H  0.59171063  0.68005698  0.13247097     0.15660
H246        H  0.55111033  0.78673988  0.13740983     0.15370
N247        N  0.53543808  0.74434692  0.21266358     0.74460
O248        O  0.62356200  0.70519757  0.05243741    -0.38990
O249        O  0.56193136  0.68708993  0.52484445    -0.38930
O250        O  0.54419979  0.73583212  0.25078005    -0.39640
O251        O  0.51402533  0.76179640  0.21003775    -0.39700
C252        C  0.69492881  0.64000946  0.33783487    -0.11980
C253        C  0.65322255  0.60738322  0.34472201     0.05020
C254        C  0.64371174  0.58999938  0.38737650    -0.07270
C255        C  0.67357694  0.60391677  0.42167306    -0.08010
C256        C  0.71478098  0.63588805  0.41607219    -0.02570
C257        C  0.72640166  0.65399720  0.37290242     0.04250
N258        N  0.76888114  0.68632067  0.36415896     0.66760
H259        H  0.70284379  0.65462105  0.30540014     0.15660
H260        H  0.66417014  0.58798502  0.45342230     0.15370
N261        N  0.60297177  0.55764559  0.39754773     0.74460
O262        O  0.78102141  0.69438805  0.32449689    -0.38990
O263        O  0.79411516  0.70810883  0.39567059    -0.38930
O264        O  0.59174027  0.52055120  0.38519452    -0.39640
O265        O  0.58657092  0.56355925  0.43091444    -0.39700
C266        C  0.69266934  0.60712649  0.15615156    -0.11980
C267        C  0.65132543  0.59714030  0.14748081     0.05020
C268        C  0.63887188  0.59803085  0.10245680    -0.07270
C269        C  0.66648040  0.60672793  0.06802313    -0.08010
C270        C  0.70820439  0.61842133  0.07615820    -0.02570
C271        C  0.72161714  0.61877565  0.12132150     0.04250
N272        N  0.76445019  0.63242839  0.13280586     0.66760
H273        H  0.70300761  0.60775124  0.19045730     0.15660
H274        H  0.65487015  0.60502797  0.03409077     0.15370
N275        N  0.59905093  0.59256565  0.09045765     0.74460
O276        O  0.79389548  0.66314075  0.11300217    -0.38990
O277        O  0.77308481  0.61709547  0.16616731    -0.38930
O278        O  0.59066946  0.61951471  0.10390825    -0.39640
O279        O  0.57806686  0.56889495  0.05762680    -0.39700
C280        C  0.44772923  0.39188573  0.37557116    -0.11980
C281        C  0.47194312  0.40086287  0.41540492     0.05020
C282        C  0.50436278  0.44261929  0.42418264    -0.07270
C283        C  0.50557105  0.47476649  0.39960477    -0.08010
C284        C  0.48784179  0.46716918  0.35686117    -0.02570
C285        C  0.45677258  0.42462931  0.34463758     0.04250
N286        N  0.43225952  0.41456465  0.30356151     0.66760
H287        H  0.42202140  0.35995551  0.36885655     0.15660
H288        H  0.52397542  0.50639344  0.41197203     0.15370
N289        N  0.53718131  0.45221124  0.45675890     0.74460
O290        O  0.41461846  0.37763683  0.28707718    -0.38990
O291        O  0.42306425  0.44032242  0.28722268    -0.38930
O292        O  0.55251488  0.42879015  0.45898971    -0.39640
O293        O  0.55626240  0.48759384  0.97654797    -0.39700
C294        C  0.53554644  0.47681612  0.10257507    -0.11980
C295        C  0.50357653  0.47694331  0.12562893     0.05020
C296        C  0.46293068  0.44040952  0.12379194    -0.07270
C297        C  0.45478186  0.40639762  0.09566812    -0.08010
C298        C  0.48653329  0.40683123  0.07138629    -0.02570
C299        C  0.52816471  0.44189707  0.07659163     0.04250
N300        N  0.56339769  0.44286894  0.05669314     0.66760
H301        H  0.56728472  0.50327472  0.10728980     0.15330
H302        H  0.42300223  0.37987434  0.09138819     0.15370
N303        N  0.42959811  0.43731560  0.14967554     0.74460
O304        O  0.59694753  0.47775770  0.05148020    -0.38990
O305        O  0.56400878  0.40936221  0.05162546    -0.38930
O306        O  0.42764125  0.46964604  0.15811097    -0.39640
O307        O  0.40053787  0.40168480  0.16211787    -0.39700
C308        C  0.88836984  0.56149159  0.14560604    -0.11980
C309        C  0.93099652  0.57692514  0.13906748     0.05020
C310        C  0.94694074  0.59111013  0.09610597    -0.07270
C311        C  0.92108211  0.59147492  0.06200258    -0.08010
C312        C  0.87823421  0.57428441  0.06741591    -0.02570
C313        C  0.86147494  0.55930295  0.11013025     0.04250
N314        N  0.81749576  0.54018273  0.11773575     0.66760
H315        H  0.87562569  0.54936810  0.17803265     0.15660
H316        H  0.93449833  0.60326353  0.02973311     0.15370
N317        N  0.98706558  0.59910323  0.08383551     0.74460
O318        O  0.79063038  0.51619942  0.08844712    -0.38990
O319        O  0.80533102  0.54320945  0.15571951    -0.38930
O320        O  0.99078331  0.56764964  0.07658905    -0.39640
O321        O  0.01104951  0.63289962  0.06389140    -0.39700
C322        C  0.92986300  0.60293469  0.36277346    -0.11980
C323        C  0.91176941  0.57044818  0.33010376     0.05020
C324        C  0.86888290  0.53901311  0.33307384    -0.07270
C325        C  0.84621024  0.53935191  0.36982491    -0.08010
C326        C  0.86569230  0.57030671  0.40382186    -0.02570
C327        C  0.90761917  0.60334399  0.39930899     0.04250
N328        N  0.92853377  0.63690815  0.43222681     0.66760
H329        H  0.96242660  0.62775019  0.36103112     0.15660
H330        H  0.81381807  0.51440038  0.37275855     0.15370
N331        N  0.84771044  0.50706363  0.29907060     0.74460
O332        O  0.96709444  0.65292694  0.44119789    -0.38990
O333        O  0.90968114  0.65337510  0.44930001    -0.38930
O334        O  0.85180415  0.47528306  0.29861341    -0.39640
O335        O  0.81853746  0.50614634  0.27586422    -0.39700
C336        C  0.96381675  0.41532757  0.07999645    -0.11980
C337        C  0.91994025  0.39629620  0.07901472     0.05020
C338        C  0.90164211  0.41164391  0.10819262    -0.07270
C339        C  0.92751602  0.44697113  0.13535208    -0.08010
C340        C  0.97121925  0.46780978  0.13384055    -0.02570
C341        C  0.98996941  0.45150108  0.10655788     0.04250
N342        N  0.03478755  0.47162893  0.10402327     0.66760
H343        H  0.97778435  0.40416968  0.05666682     0.15660
H344        H  0.91325101  0.45892747  0.15727675     0.15370
N345        N  0.85722638  0.39410511  0.10810001     0.74460
O346        O  0.05076742  0.45097211  0.09036124    -0.38990
O347        O  0.05843117  0.51076485  0.11164116    -0.38930
O348        O  0.83307948  0.35540512  0.11589514    -0.39640
O349        O  0.84283138  0.41835331  0.10848987    -0.39700
C350        C  0.91449451  0.46115372  0.37486642    -0.11980
C351        C  0.95328508  0.46797381  0.36209074     0.05020
C352        C  0.96649145  0.44050653  0.37665765    -0.07270
C353        C  0.94036717  0.40631534  0.40327064    -0.08010
C354        C  0.90242750  0.40052541  0.41779689    -0.02570
C355        C  0.88868900  0.42771817  0.40276877     0.04250
N356        N  0.85011408  0.42327383  0.41707841     0.66760
H357        H  0.90457678  0.48246514  0.36341359     0.15660
H358        H  0.95185222  0.38692400  0.41700419     0.15370
N359        N  0.00858122  0.45080164  0.37089456     0.74460
O360        O  0.84563056  0.45484665  0.41755352    -0.38990
O361        O  0.81892201  0.38727303  0.42476898    -0.38930
O362        O  0.03807317  0.48734654  0.38203139    -0.39640
O363        O  0.01637623  0.42174216  0.36544428    -0.39700
C364        C  0.18060465  0.56078296  0.11689436    -0.11980
C365        C  0.19083130  0.58711105  0.07960258     0.05020
C366        C  0.18426265  0.62152211  0.08080121    -0.07270
C367        C  0.16448747  0.62645416  0.11726605    -0.08010
C368        C  0.15256191  0.59904762  0.15341256    -0.02570
C369        C  0.16185361  0.56656519  0.15423579     0.04250
N370        N  0.15203600  0.53910192  0.19194965     0.66760
H371        H  0.18605768  0.53474332  0.11620554     0.15660
H372        H  0.15757605  0.65153250  0.11709003     0.15370
N373        N  0.19759160  0.65171339  0.04548026     0.74460
O374        O  0.14856707  0.50346548  0.18748400    -0.38990
O375        O  0.15131515  0.55203828  0.23071844    -0.38930
O376        O  0.17644481  0.66830414  0.53457994    -0.39640
O377        O  0.23313086  0.66587733  0.02917767    -0.39700
C378        C  0.14927583  0.60338823  0.37244391    -0.11980
C379        C  0.12154122  0.56705509  0.34727147     0.05020
C380        C  0.12437720  0.53025491  0.35162814    -0.07270
C381        C  0.14976591  0.52931996  0.38709408    -0.08010
C382        C  0.17399830  0.56470766  0.41523318    -0.02570
C383        C  0.17647006  0.60315769  0.40510178     0.04250
N384        N  0.20664314  0.64213292  0.42744569     0.66760
H385        H  0.14994887  0.63260140  0.36625331     0.15660
H386        H  0.14937984  0.50039119  0.39409095     0.15370
N387        N  0.10124125  0.49345144  0.32263698     0.74460
O388        O  0.19959257  0.67188904  0.43111721    -0.38990
O389        O  0.24271858  0.64916021  0.43772983    -0.38930
O390        O  0.07354107  0.48996792  0.29492546    -0.39640
O391        O  0.10856979  0.46376197  0.32465009    -0.39700
C392        C  0.07881792  0.71376437  0.11376693    -0.11980
C393        C  0.10354305  0.70405301  0.14131318     0.05020
C394        C  0.14736900  0.73174140  0.14277309    -0.07270
C395        C  0.16564617  0.76420804  0.11142807    -0.08010
C396        C  0.14102734  0.77053379  0.07969591    -0.02570
C397        C  0.09690970  0.74702953  0.08318762     0.04250
N398        N  0.07031050  0.75547697  0.05488940     0.66760
H399        H  0.04513860  0.69459008  0.11552720     0.15660
H400        H  0.19943476  0.78264799  0.10981898     0.15370
N401        N  0.17381522  0.72572673  0.17371142     0.74460
O402        O  0.03255092  0.72716408  0.54712048    -0.38990
O403        O  0.08359791  0.79209193  0.53998608    -0.38930
O404        O  0.20793172  0.73046871  0.16113935    -0.39640
O405        O  0.16697456  0.72334942  0.21496100    -0.39700
C406        C  0.14213726  0.74345436  0.33732825    -0.11980
C407        C  0.11775300  0.69987805  0.34474284     0.05020
C408        C  0.11177239  0.68525964  0.38905207    -0.07270
C409        C  0.13272165  0.71368711  0.42424065    -0.08010
C410        C  0.15450075  0.75751320  0.41790680    -0.02570
C411        C  0.15908593  0.77270226  0.37349645     0.04250
N412        N  0.17839762  0.81701217  0.36446134     0.66760
H413        H  0.14585336  0.75479036  0.30339935     0.15660
H414        H  0.12954779  0.70106506  0.45750488     0.15370
N415        N  0.08155592  0.64245937  0.39972555     0.74460
O416        O  0.19949964  0.83201602  0.32987291    -0.38990
O417        O  0.16935917  0.83982841  0.38708236    -0.38930
O418        O  0.09072569  0.62345599  0.42867728    -0.39640
O419        O  0.04349780  0.62817548  0.38957980    -0.39700
C420        C  0.64163199  0.18923073  0.11377124    -0.11980
C421        C  0.65469170  0.17649556  0.15186096     0.05020
C422        C  0.69538511  0.18256967  0.15416164    -0.07270
C423        C  0.72066201  0.19885828  0.11643984    -0.08010
C424        C  0.70643739  0.20941094  0.07740144    -0.02570
C425        C  0.66689724  0.20583154  0.07677716     0.04250
N426        N  0.65202005  0.21913265  0.03911377     0.66760
H427        H  0.61085770  0.18545304  0.11242870     0.15660
H428        H  0.75138930  0.20259247  0.11697095     0.15370
N429        N  0.71180656  0.17345102  0.19404927     0.74460
O430        O  0.61351220  0.19951467  0.02832228    -0.38990
O431        O  0.67646653  0.25313216  0.51968692    -0.38930
O432        O  0.69416619  0.16771000  0.23091317    -0.39640
O433        O  0.74648593  0.17528447  0.19362774    -0.39700
C434        C  0.69619295  0.15566775  0.40211048    -0.11980
C435        C  0.71333298  0.19841229  0.41294548     0.05020
C436        C  0.70629849  0.22419006  0.38332669    -0.07270
C437        C  0.67916556  0.20544337  0.34585329    -0.08010
C438        C  0.65881363  0.16172445  0.33707212    -0.02570
C439        C  0.67013667  0.13726277  0.36393370     0.04250
N440        N  0.65505384  0.09368821  0.35365906     0.66760
H441        H  0.70299345  0.13637653  0.42384077     0.15660
H442        H  0.67155069  0.22483324  0.32534671     0.15370
N443        N  0.72423850  0.26873650  0.39178340     0.74460
O444        O  0.65886280  0.08307445  0.31482522    -0.38990
O445        O  0.64493348  0.06739016  0.38476589    -0.38930
O446        O  0.73395313  0.29375433  0.35947691    -0.39640
O447        O  0.72623842  0.28268467  0.43080775    -0.39700
C448        C  0.52281490  0.20333194  0.13970247    -0.11980
C449        C  0.51281155  0.16231357  0.12705687     0.05020
C450        C  0.49879088  0.14796585  0.08269458    -0.07270
C451        C  0.49495921  0.17485342  0.05275829    -0.08010
C452        C  0.50832633  0.21697335  0.06422919    -0.02570
C453        C  0.52241788  0.23151381  0.10849114     0.04250
N454        N  0.53944469  0.27502623  0.12158199     0.66760
H455        H  0.53470232  0.21486783  0.17336915     0.15660
H456        H  0.48329995  0.16339737  0.01900899     0.15370
N457        N  0.48930266  0.10712998  0.06678081     0.74460
O458        O  0.53645246  0.28429098  0.16133430    -0.38990
O459        O  0.56278215  0.30443704  0.09579247    -0.38930
O460        O  0.47201813  0.07543392  0.09158020    -0.39640
O461        O  0.49404753  0.10166203  0.02624295    -0.39700
C462        C  0.50073077  0.22083725  0.38025959    -0.11980
C463        C  0.53610577  0.24533044  0.40814728     0.05020
C464        C  0.57106175  0.24046038  0.40524946    -0.07270
C465        C  0.56690655  0.20640544  0.38029488    -0.08010
C466        C  0.52978769  0.17897654  0.35610171    -0.02570
C467        C  0.49701227  0.18767779  0.35387377     0.04250
N468        N  0.45908386  0.16239412  0.32728273     0.66760
H469        H  0.47394240  0.22459247  0.38262970     0.15660
H470        H  0.59305302  0.20148889  0.37916005     0.15370
N471        N  0.60984174  0.26846057  0.42930315     0.74460
O472        O  0.43829875  0.17845081  0.31314391    -0.38990
O473        O  0.44384550  0.12323085  0.32153267    -0.38930
O474        O  0.61828290  0.30464494  0.44212260    -0.39640
O475        O  0.63742630  0.25870411  0.43441472    -0.39700
C476        C  0.36071694  0.99686326  0.10223720    -0.11980
C477        C  0.35386854  0.95785992  0.08674655     0.05020
C478        C  0.37546788  0.94009476  0.10742254    -0.07270
C479        C  0.40542065  0.96323718  0.14122466    -0.08010
C480        C  0.41471319  0.00369742  0.15438542    -0.02570
C481        C  0.39071488  0.02010563  0.13638090     0.04250
N482        N  0.39836577  0.06110468  0.14950411     0.66760
H483        H  0.34370277  0.00998559  0.08615028     0.15660
H484        H  0.42382858  0.95078271  0.15527792     0.15370
N485        N  0.36939568  0.90008115  0.09308311     0.74460
O486        O  0.38821831  0.08137583  0.12338448    -0.38990
O487        O  0.41194745  0.07576953  0.18841445    -0.38930
O488        O  0.36531110  0.89019624  0.05212059    -0.39640
O489        O  0.37236669  0.87627333  0.12122746    -0.39700
C490        C  0.37992459  0.00377493  0.42083264    -0.11980
C491        C  0.35104331  0.96010752  0.42193199     0.05020
C492        C  0.34983597  0.93440066  0.38617320    -0.07270
C493        C  0.37802146  0.95291202  0.35143514    -0.08010
C494        C  0.40998346  0.99585844  0.35305582    -0.02570
C495        C  0.41082306  0.02146742  0.38885366     0.04250
N496        N  0.44491763  0.06392056  0.39679197     0.66760
H497        H  0.38104653  0.02400240  0.44768269     0.15660
H498        H  0.37707505  0.93252157  0.32488830     0.15370
N499        N  0.32325072  0.88921823  0.38632994     0.74460
O500        O  0.43708435  0.09205196  0.40757184    -0.38990
O501        O  0.48059364  0.06989467  0.40699907    -0.38930
O502        O  0.30376736  0.86957409  0.35089877    -0.39640
O503        O  0.32508478  0.86859426  0.41901995    -0.39700
C504        C  0.48895165  0.92375468  0.16634300    -0.11980
C505        C  0.52587105  0.96311383  0.17421751     0.05020
C506        C  0.56048924  0.97482763  0.14678490    -0.07270
C507        C  0.55542095  0.95008712  0.10923082    -0.08010
C508        C  0.51746412  0.91288896  0.09924484    -0.02570
C509        C  0.48428394  0.89810700  0.12923134     0.04250
N510        N  0.44565749  0.85823483  0.12231987     0.66760
H511        H  0.46261168  0.91406888  0.18763146     0.15660
H512        H  0.58128792  0.96033549  0.08703014     0.15370
N513        N  0.60051252  0.01242172  0.15534161     0.74460
O514        O  0.42336241  0.83913623  0.15515029    -0.38990
O515        O  0.43274852  0.84244576  0.08363761    -0.38930
O516        O  0.61907457  0.01800374  0.19285246    -0.39640
O517        O  0.62000082  0.03670208  0.12369759    -0.39700
C518        C  0.54324637  0.93326107  0.40632983    -0.11980
C519        C  0.50932160  0.91749596  0.43504305     0.05020
C520        C  0.48019908  0.93085374  0.42972483    -0.07270
C521        C  0.48873854  0.96333569  0.39990675    -0.08010
C522        C  0.52393604  0.98090812  0.37320846    -0.02570
C523        C  0.55048522  0.96420130  0.37446677     0.04250
N524        N  0.58554778  0.97917025  0.34563061     0.66760
H525        H  0.56524271  0.92262555  0.41008283     0.15660
H526        H  0.46756593  0.97507772  0.39730850     0.15370
N527        N  0.44226535  0.91209266  0.45448262     0.74460
O528        O  0.61600624  0.97490297  0.35664733    -0.38990
O529        O  0.58451795  0.99265271  0.30718398    -0.38930
O530        O  0.42435444  0.87376780  0.46547207    -0.39640
O531        O  0.42418834  0.93237181  0.46141428    -0.39700
C532        C  0.50945927  0.89386723  0.97514101     0.03410
C533        C  0.50746502  0.90903180  0.01724153    -0.12740
C534        C  0.51373269  0.89202513  0.55605381     0.00910
C535        C  0.52298778  0.86013187  0.55311900    -0.11260
C536        C  0.52473951  0.84340775  0.51123820     0.03410
C537        C  0.51721761  0.86055986  0.97225623    -0.10680
H538        H  0.50334097  0.93588244  0.01995534     0.09000
H539        H  0.53139770  0.85092342  0.58402527     0.06530
H540        H  0.51868991  0.84966780  0.93935364     0.06380
C541        C  0.32742958  0.94228964  0.96364597     0.03410
C542        C  0.34850875  0.95809281  0.50492850    -0.12740
C543        C  0.32930917  0.93999562  0.54478296     0.00910
C544        C  0.28923402  0.90385378  0.54390274    -0.11260
C545        C  0.26661926  0.88729039  0.50294001     0.03410
C546        C  0.28562978  0.90857570  0.96314357    -0.10680
H547        H  0.38090700  0.98372232  0.00640281     0.09000
H548        H  0.27693970  0.88858252  0.57525168     0.06530
H549        H  0.26866127  0.89853393  0.93137833     0.06380
O550        O  0.53978672  0.05134007  0.86416757    -0.79850
O551        O  0.60931802  0.11508574  0.69202680    -0.79880
O552        O  0.49111707  0.98817838  0.72025677    -0.79880
O553        O  0.60599089  0.16402963  0.79124458    -0.79830
O554        O  0.55635924  0.03132762  0.70763722    -0.79950
O555        O  0.59885587  0.10171905  0.80363207    -0.79870
O556        O  0.60284672  0.17024825  0.70004975    -0.79850
O557        O  0.52400892  0.01224471  0.80309904    -0.79890
C558        C  0.53097754  0.01685236  0.84570797     1.09840
C559        C  0.62260490  0.15361118  0.68540602     1.09720
C560        C  0.52496463  0.99460936  0.70424918     1.09860
C561        C  0.62044726  0.14162854  0.80713103     1.09740
O562        O  0.54633288  0.12570788  0.84272475    -0.79850
O563        O  0.48778744  0.03584534  0.66392070    -0.79930
O564        O  0.44292644  0.98615374  0.79035019    -0.79870
O565        O  0.51603032  0.14193006  0.70060371    -0.79850
O566        O  0.54064888  0.11905461  0.64868863    -0.79900
O567        O  0.47467019  0.05001777  0.82080815    -0.79860
O568        O  0.51647273  0.14028938  0.78937188    -0.79820
O569        O  0.45300850  0.03853572  0.72107134    -0.79890
Co570      Co  0.53830583  0.07523449  0.80839386     1.51530
Co571      Co  0.54861420  0.07557585  0.68170300     1.51690
Co572      Co  0.49013938  0.03046664  0.76208780     1.51570
Co573      Co  0.55850469  0.15053039  0.74585006     1.51470
O574        O  0.53707786  0.08792543  0.74339437    -1.41790
C575        C  0.52910645  0.14549995  0.82912767     1.09760
C576        C  0.45392241  0.02934943  0.68064340     1.09850
C577        C  0.44368921  0.01124772  0.81981704     1.09790
C578        C  0.52208398  0.13830680  0.66007108     1.09770
C579        C  0.52934919  0.26209928  0.94967913     0.03410
C580        C  0.53138472  0.24329573  0.48905203    -0.12740
C581        C  0.51198256  0.24517675  0.52717912     0.00910
C582        C  0.49373971  0.27019077  0.52723054    -0.11260
C583        C  0.49544554  0.29372841  0.48903685     0.03410
C584        C  0.51252329  0.28823947  0.94979398    -0.10680
H585        H  0.54468301  0.22327062  0.48881072     0.09000
H586        H  0.47777872  0.27052797  0.55667688     0.06530
H587        H  0.51306472  0.30374826  0.91905892     0.06380
C588        C  0.73603083  0.21473306  0.95655644     0.03410
C589        C  0.77785636  0.24775765  0.95850318    -0.12740
C590        C  0.79652870  0.27081434  0.99866741     0.00910
C591        C  0.77310342  0.25689488  0.53790473    -0.11260
C592        C  0.73204227  0.22183238  0.53681068     0.03410
C593        C  0.71390283  0.20074392  0.99599336    -0.10680
H594        H  0.79455388  0.25638971  0.92771429     0.09000
H595        H  0.78532109  0.27449923  0.56898993     0.06530
H596        H  0.68160428  0.17489096  0.99448118     0.06380
O597        O  0.06023832  0.65489634  0.79652882    -0.79850
O598        O  0.99307467  0.60519200  0.68526094    -0.79880
O599        O  0.08770972  0.65798190  0.70452469    -0.79880
O600        O  0.93364410  0.53323347  0.78254725    -0.79830
O601        O  0.06242631  0.62882122  0.63780313    -0.79950
O602        O  0.97652304  0.60112470  0.79461295    -0.79870
O603        O  0.94552446  0.53749979  0.69163369    -0.79850
O604        O  0.11535615  0.65159913  0.79019137    -0.79890
C605        C  0.09799675  0.66964408  0.80685662     1.09840
C606        C  0.95718592  0.57366403  0.67521910     1.09720
C607        C  0.08389215  0.66185818  0.66198991     1.09860
C608        C  0.94073112  0.56852033  0.79820589     1.09740
O609        O  0.98642459  0.53971577  0.84225157    -0.79850
O610        O  0.08552766  0.57914476  0.68034400    -0.79930
O611        O  0.09143114  0.56693199  0.77623505    -0.79870
O612        O  0.99618130  0.49838500  0.70467227    -0.79850
O613        O  0.00620961  0.54148363  0.65057614    -0.79900
O614        O  0.07102239  0.58671589  0.83547833    -0.79860
O615        O  0.98451460  0.49495769  0.79315498    -0.79820
O616        O  0.14091119  0.62908646  0.71753675    -0.79890
Co617      Co  0.02397667  0.59552289  0.81350920     1.51530
Co618      Co  0.03944867  0.59424303  0.68848760     1.51690
Co619      Co  0.08652343  0.60862238  0.74016900     1.51570
Co620      Co  0.96859985  0.51894961  0.74313876     1.51470
O621        O  0.02417130  0.57478526  0.75156220    -1.41790
C622        C  0.97792809  0.50291388  0.83182379     1.09760
C623        C  0.12558054  0.60231409  0.68581425     1.09850
C624        C  0.09124237  0.57113661  0.81815205     1.09790
C625        C  0.99492678  0.50463600  0.66371517     1.09770
C626        C  0.19281118  0.56077319  0.95792764     0.03410
C627        C  0.18197391  0.57185122  0.49772571    -0.12740
C628        C  0.20335824  0.57514042  0.53799515     0.00910
C629        C  0.23590194  0.56662139  0.53835681    -0.11260
C630        C  0.24667621  0.55363886  0.49893064     0.03410
C631        C  0.22338514  0.54963495  0.95895668    -0.10680
H632        H  0.15705820  0.57871146  0.99706821     0.09000
H633        H  0.25313216  0.57161214  0.56951190     0.06530
H634        H  0.22910658  0.53909317  0.92787354     0.06380
C635        C  0.88626330  0.37594118  0.95855993     0.03410
C636        C  0.85093105  0.33534267  0.95831743    -0.12740
C637        C  0.83755808  0.31209188  0.99824879     0.00910
C638        C  0.86205245  0.33064259  0.53799528    -0.11260
C639        C  0.89661836  0.37228970  0.53813502     0.03410
C640        C  0.90832627  0.39427679  0.99829953    -0.10680
H641        H  0.83356885  0.32337473  0.92700985     0.09000
H642        H  0.85427088  0.31335297  0.56882406     0.06530
H643        H  0.93487332  0.42647144  0.99818163     0.06380
C644        C  0.84426530  0.56705384  0.94589314     0.03410
C645        C  0.86043471  0.56037096  0.48563321    -0.12740
C646        C  0.85300081  0.57258994  0.52712851     0.00910
C647        C  0.82712757  0.58956811  0.52835446    -0.11260
C648        C  0.80694536  0.59262031  0.48911653     0.03410
C649        C  0.81575040  0.58073577  0.94781085    -0.10680
H650        H  0.88220531  0.54938915  0.48370813     0.09000
H651        H  0.82458703  0.60220435  0.55987423     0.06530
H652        H  0.80270617  0.58398764  0.91654579     0.06380
C653        C  0.16992745  0.78530355  0.95883900     0.03410
C654        C  0.20977690  0.82202161  0.96171444    -0.12740
C655        C  0.22448212  0.84714848  0.00124585     0.00910
C656        C  0.19974442  0.83192190  0.53955682    -0.11260
C657        C  0.16136282  0.79340236  0.53814959     0.03410
C658        C  0.14573099  0.77212783  0.99715490    -0.10680
H659        H  0.22961780  0.82991928  0.93335275     0.09000
H660        H  0.21009774  0.84898776  0.57105833     0.06530
H661        H  0.11543467  0.74321498  0.99595974     0.06380
O662        O  0.54017276  0.54984221  0.64904855    -0.79850
O663        O  0.47653782  0.56397179  0.81645080    -0.79880
O664        O  0.50412183  0.49712154  0.78469107    -0.79880
O665        O  0.45928886  0.56094331  0.71486189    -0.79830
O666        O  0.53265936  0.54105605  0.83999313    -0.79950
O667        O  0.50287868  0.59507010  0.66129546    -0.79870
O668        O  0.45978514  0.60788642  0.78598859    -0.79850
O669        O  0.50811540  0.50041280  0.69875636    -0.79890
C670        C  0.51631019  0.51111048  0.65897528     1.09840
C671        C  0.45225077  0.57939001  0.81429715     1.09720
C672        C  0.50785790  0.50361424  0.82578887     1.09860
C673        C  0.46561672  0.57275037  0.67456665     1.09740
O674        O  0.57757773  0.66029421  0.71147947    -0.79850
O675        O  0.60310981  0.61851548  0.80692424    -0.79930
O676        O  0.59828539  0.55176804  0.69953918    -0.79870
O677        O  0.54246485  0.65020469  0.80494643    -0.79850
O678        O  0.54691847  0.61759409  0.86435198    -0.79900
O679        O  0.61564918  0.61742818  0.69613714    -0.79860
O680        O  0.51614788  0.65063052  0.71905645    -0.79820
O681        O  0.59756831  0.55696765  0.79445384    -0.79890
Co682      Co  0.55876324  0.60515256  0.68304521     1.51530
Co683      Co  0.54146178  0.59245448  0.80758966     1.51690
Co684      Co  0.55125134  0.52987827  0.74507650     1.51570
Co685      Co  0.50166916  0.60123995  0.75966065     1.51470
O686        O  0.53928208  0.57838985  0.74282679    -1.41790
C687        C  0.55297187  0.67343579  0.70532756     1.09760
C688        C  0.61779625  0.59458303  0.81131123     1.09850
C689        C  0.62218506  0.58882911  0.68484746     1.09790
C690        C  0.54805279  0.64948415  0.84774477     1.09770
C691        C  0.47365458  0.37682703  0.53307559     0.03410
C692        C  0.48244855  0.34439001  0.53161590    -0.12740
C693        C  0.48027856  0.32417868  0.49060645     0.00910
C694        C  0.46944804  0.33805313  0.95098621    -0.11260
C695        C  0.46105876  0.37084576  0.95278472     0.03410
C696        C  0.45852646  0.38625864  0.49459851    -0.10680
H697        H  0.49444379  0.33781779  0.56186208     0.09000
H698        H  0.47057450  0.32623958  0.91842534     0.06530
H699        H  0.45303066  0.41232959  0.49595082     0.06380
C700        C  0.33889522  0.54128361  0.53839538     0.03410
C701        C  0.30248531  0.54353307  0.53906370    -0.12740
C702        C  0.28346631  0.54708855  0.99875384     0.00910
C703        C  0.30221870  0.54771501  0.95797929    -0.11260
C704        C  0.33837063  0.54529689  0.95707424     0.03410
C705        C  0.35567675  0.54109949  0.99728816    -0.10680
H706        H  0.29044806  0.54375475  0.57131931     0.09000
H707        H  0.29050667  0.55204378  0.92642438     0.06530
H708        H  0.38470232  0.54111370  0.49703066     0.06380
C709        C  0.73494265  0.62716533  0.53603233     0.03410
C710        C  0.75933705  0.60867868  0.53180498    -0.12740
C711        C  0.77947087  0.61105673  0.99162723     0.00910
C712        C  0.77063246  0.62827997  0.95366213    -0.11260
C713        C  0.74305397  0.64309373  0.95583316     0.03410
C714        C  0.72962369  0.64700235  0.49820746    -0.10680
H715        H  0.76067185  0.59045100  0.55933637     0.09000
H716        H  0.78207038  0.62735221  0.92127253     0.06530
H717        H  0.70912061  0.65952185  0.49980598     0.06380
C718        C  0.56811093  0.77499857  0.55102846     0.03410
C719        C  0.54274714  0.79292738  0.54819760    -0.12740
C720        C  0.54009328  0.81296103  0.00910024     0.00910
C721        C  0.55308791  0.80367350  0.96909367    -0.11260
C722        C  0.57506932  0.78244377  0.97040469     0.03410
C723        C  0.58869279  0.77582131  0.51191947    -0.10680
H724        H  0.52398055  0.79047259  0.57591666     0.09000
H725        H  0.54493600  0.81069678  0.93675333     0.06530
H726        H  0.61146301  0.76636224  0.51165209     0.06380
C727        C  0.39809593  0.58953784  0.84947340    -0.11980
C728        C  0.41688612  0.56513376  0.84535471     0.05020
C729        C  0.40456921  0.53090036  0.87465462    -0.07270
C730        C  0.37582171  0.52301239  0.90767002    -0.08010
C731        C  0.36077139  0.55012812  0.91496313    -0.02570
C732        C  0.37151047  0.58355001  0.88477066     0.04250
N733        N  0.35966272  0.61431752  0.89183146     0.66760
H734        H  0.40731783  0.61623975  0.82782818     0.15660
H735        H  0.36766321  0.49707766  0.93019984     0.15370
N736        N  0.42385757  0.50626775  0.87497912     0.74460
O737        O  0.36618206  0.63226687  0.92955518    -0.38990
O738        O  0.34942823  0.62869848  0.85884442    -0.38930
O739        O  0.45786215  0.52033366  0.89699892    -0.39640
O740        O  0.40134903  0.46700113  0.86750339    -0.39700
C741        C  0.38996131  0.52937101  0.64656905    -0.11980
C742        C  0.43049422  0.56506964  0.64301469     0.05020
C743        C  0.43727086  0.59410400  0.60873304    -0.07270
C744        C  0.40507288  0.58652899  0.57865715    -0.08010
C745        C  0.36601062  0.54919029  0.57907857    -0.02570
C746        C  0.35758946  0.52012696  0.61422799     0.04250
N747        N  0.31781081  0.48106231  0.61717734     0.66760
H748        H  0.38418595  0.50756344  0.67341013     0.15660
H749        H  0.41173410  0.60912700  0.55229203     0.15370
N750        N  0.47725752  0.63102160  0.60229497     0.74460
O751        O  0.30929873  0.45911685  0.65196710    -0.38990
O752        O  0.29155831  0.46720162  0.58480317    -0.38930
O753        O  0.50406547  0.62724028  0.58150097    -0.39640
O754        O  0.48081381  0.66680897  0.60460355    -0.39700
C755        C  0.58782033  0.72633127  0.86983858    -0.11980
C756        C  0.55489980  0.68477057  0.87729577     0.05020
C757        C  0.52770768  0.67736099  0.91264322    -0.07270
C758        C  0.53390144  0.71123496  0.93913447    -0.08010
C759        C  0.56812934  0.75218283  0.93390289    -0.02570
C760        C  0.59555667  0.76036717  0.89843828     0.04250
N761        N  0.63112253  0.80204571  0.89125555     0.66760
H762        H  0.60815707  0.73192235  0.84228372     0.15660
H763        H  0.51301765  0.70501986  0.96639530     0.15370
N764        N  0.49369336  0.63583759  0.92270655     0.74460
O765        O  0.65928558  0.80704547  0.86520479    -0.38990
O766        O  0.63392471  0.83432101  0.90920960    -0.38930
O767        O  0.50120413  0.60731347  0.93313662    -0.39640
O768        O  0.45904411  0.63113975  0.93307167    -0.39700
C769        C  0.58205616  0.70286045  0.63334703    -0.11980
C770        C  0.56372185  0.70658509  0.67166550     0.05020
C771        C  0.55203157  0.73714057  0.67300433    -0.07270
C772        C  0.55748342  0.76153569  0.63457074    -0.08010
C773        C  0.57008874  0.75322204  0.59328640    -0.02570
C774        C  0.58242010  0.72265265  0.59368630     0.04250
N775        N  0.59071993  0.70685687  0.55407725     0.66760
H776        H  0.59170721  0.68005134  0.63246990     0.15660
H777        H  0.55111686  0.78674156  0.63741177     0.15370
N778        N  0.53544678  0.74435041  0.71266692     0.74460
O779        O  0.62355295  0.70518535  0.55243411    -0.38990
O780        O  0.56193827  0.68709202  0.02484601    -0.38930
O781        O  0.54420891  0.73583472  0.75078272    -0.39640
O782        O  0.51403715  0.76180333  0.71004287    -0.39700
C783        C  0.69492428  0.64005473  0.83784300    -0.11980
C784        C  0.65323182  0.60738930  0.84471992     0.05020
C785        C  0.64373916  0.58997346  0.88736154    -0.07270
C786        C  0.67360917  0.60389617  0.92165419    -0.08010
C787        C  0.71479659  0.63591178  0.91606509    -0.02570
C788        C  0.72640130  0.65405338  0.87290749     0.04250
N789        N  0.76886740  0.68641876  0.86417299     0.66760
H790        H  0.70282419  0.65469053  0.80541929     0.15660
H791        H  0.66421830  0.58794621  0.95339569     0.15370
N792        N  0.60300520  0.55760688  0.89753498     0.74460
O793        O  0.78100088  0.69453265  0.82451161    -0.38990
O794        O  0.79409738  0.70819129  0.89569402    -0.38930
O795        O  0.59176810  0.52052197  0.88513822    -0.39640
O796        O  0.58661386  0.56349394  0.93092784    -0.39700
C797        C  0.69266414  0.60709959  0.65615982    -0.11980
C798        C  0.65132448  0.59712757  0.64749056     0.05020
C799        C  0.63887145  0.59801985  0.60246700    -0.07270
C800        C  0.66647681  0.60670878  0.56803264    -0.08010
C801        C  0.70819709  0.61838860  0.57616588    -0.02570
C802        C  0.72160904  0.61873810  0.62132832     0.04250
N803        N  0.76443860  0.63237451  0.63281016     0.66760
H804        H  0.70300157  0.60772055  0.69046509     0.15660
H805        H  0.65486676  0.60501212  0.53410096     0.15370
N806        N  0.59905300  0.59256068  0.59046829     0.74460
O807        O  0.79388987  0.66307927  0.61300428    -0.38990
O808        O  0.77306584  0.61703459  0.66617067    -0.38930
O809        O  0.59067769  0.61951509  0.60391575    -0.39640
O810        O  0.57806387  0.56888654  0.55764151    -0.39700
C811        C  0.44768934  0.39187526  0.87556090    -0.11980
C812        C  0.47192311  0.40082878  0.91537488     0.05020
C813        C  0.50437933  0.44257506  0.92413974    -0.07270
C814        C  0.50558448  0.47472149  0.89958016    -0.08010
C815        C  0.48783910  0.46715977  0.85685808    -0.02570
C816        C  0.45674150  0.42462539  0.84463434     0.04250
N817        N  0.43221551  0.41458060  0.80356997     0.66760
H818        H  0.42195160  0.35994812  0.86885382     0.15660
H819        H  0.52407574  0.50644535  0.91198983     0.15370
N820        N  0.53720912  0.45213206  0.95668635     0.74460
O821        O  0.41453902  0.37765003  0.78708627    -0.38990
O822        O  0.42305102  0.44036309  0.78723807    -0.38930
O823        O  0.55249189  0.42866708  0.95890950    -0.39640
O824        O  0.55617329  0.48766090  0.47664336    -0.39700
C825        C  0.53555444  0.47680838  0.60259869    -0.11980
C826        C  0.50358183  0.47694009  0.62564197     0.05020
C827        C  0.46293476  0.44040827  0.62380214    -0.07270
C828        C  0.45478825  0.40639255  0.59568626    -0.08010
C829        C  0.48654227  0.40682211  0.57141370    -0.02570
C830        C  0.52817366  0.44188649  0.57662209     0.04250
N831        N  0.56340663  0.44285597  0.55672764     0.66760
H832        H  0.56729313  0.50326615  0.60731477     0.15330
H833        H  0.42300811  0.37987114  0.59140184     0.15370
N834        N  0.42959826  0.43732138  0.64967280     0.74460
O835        O  0.59694808  0.47774587  0.55148738    -0.38990
O836        O  0.56402706  0.40935144  0.55168798    -0.38930
O837        O  0.42764670  0.46965602  0.65810102    -0.39640
O838        O  0.40052887  0.40169288  0.66210867    -0.39700
C839        C  0.88835689  0.56145883  0.64560546    -0.11980
C840        C  0.93098831  0.57691384  0.63907016     0.05020
C841        C  0.94693183  0.59110601  0.59610978    -0.07270
C842        C  0.92106605  0.59145348  0.56200369    -0.08010
C843        C  0.87821485  0.57424232  0.56741455    -0.02570
C844        C  0.86145697  0.55925552  0.61012799     0.04250
N845        N  0.81747507  0.54011566  0.61773086     0.66760
H846        H  0.87561370  0.54932959  0.67803097     0.15660
H847        H  0.93448057  0.60324646  0.52973454     0.15370
N848        N  0.98706712  0.59912616  0.58384350     0.74460
O849        O  0.79061656  0.51612805  0.58843927    -0.38990
O850        O  0.80530296  0.54313141  0.65571437    -0.38930
O851        O  0.99081144  0.56768789  0.57660379    -0.39640
O852        O  0.01103556  0.63292622  0.56389692    -0.39700
C853        C  0.92987414  0.60295713  0.86277013    -0.11980
C854        C  0.91177601  0.57046385  0.83010768     0.05020
C855        C  0.86888843  0.53903301  0.83308340    -0.07270
C856        C  0.84621971  0.53938340  0.86983292    -0.08010
C857        C  0.86570624  0.57034537  0.90382252    -0.02570
C858        C  0.90763416  0.60337771  0.89930380     0.04250
N859        N  0.92855397  0.63694784  0.93221452     0.66760
H860        H  0.96243844  0.62776977  0.86102365     0.15660
H861        H  0.81382692  0.51443507  0.87277159     0.15370
N862        N  0.84771038  0.50707684  0.79908740     0.74460
O863        O  0.96711463  0.65296414  0.94118361    -0.38990
O864        O  0.90970596  0.65342179  0.94928311    -0.38930
O865        O  0.85181302  0.47530178  0.79862793    -0.39640
O866        O  0.81852463  0.50614691  0.77589379    -0.39700
C867        C  0.96381833  0.41532972  0.57999563    -0.11980
C868        C  0.91994152  0.39629551  0.57901373     0.05020
C869        C  0.90164110  0.41163834  0.60819463    -0.07270
C870        C  0.92751287  0.44696370  0.63535742    -0.08010
C871        C  0.97121632  0.46780543  0.63384608    -0.02570
C872        C  0.98996885  0.45150162  0.60656005     0.04250
N873        N  0.03478725  0.47163272  0.60402524     0.66760
H874        H  0.97778776  0.40417536  0.55666423     0.15660
H875        H  0.91324601  0.45891679  0.65728378     0.15370
N876        N  0.85722508  0.39409696  0.60810163     0.74460
O877        O  0.05076968  0.45097869  0.59036212    -0.38990
O878        O  0.05842835  0.51076892  0.61164327    -0.38930
O879        O  0.83308070  0.35539803  0.61590371    -0.39640
O880        O  0.84282785  0.41834333  0.60848637    -0.39700
C881        C  0.91449561  0.46116362  0.87487822    -0.11980
C882        C  0.95328338  0.46797902  0.86209837     0.05020
C883        C  0.96648481  0.44050605  0.87665876    -0.07270
C884        C  0.94035858  0.40631407  0.90326962    -0.08010
C885        C  0.90242200  0.40052868  0.91780012    -0.02570
C886        C  0.88868811  0.42772695  0.90277840     0.04250
N887        N  0.85011562  0.42328617  0.91709172     0.66760
H888        H  0.90458146  0.48247911  0.86342981     0.15660
H889        H  0.95184032  0.38691836  0.91699864     0.15370
N890        N  0.00857244  0.45079594  0.87089179     0.74460
O891        O  0.84563431  0.45486039  0.91756635    -0.38990
O892        O  0.81892331  0.38728695  0.92478722    -0.38930
O893        O  0.03806797  0.48733810  0.88203152    -0.39640
O894        O  0.01636207  0.42173341  0.86543511    -0.39700
C895        C  0.18060215  0.56078070  0.61689273    -0.11980
C896        C  0.19082985  0.58711072  0.57960244     0.05020
C897        C  0.18426016  0.62152107  0.58080250    -0.07270
C898        C  0.16448341  0.62645073  0.61726729    -0.08010
C899        C  0.15255762  0.59904283  0.65341262    -0.02570
C900        C  0.16184970  0.56656070  0.65423424     0.04250
N901        N  0.15203082  0.53909533  0.69194640     0.66760
H902        H  0.18605567  0.53474141  0.61620268     0.15660
H903        H  0.15757123  0.65152848  0.61709227     0.15370
N904        N  0.19758979  0.65171413  0.54548321     0.74460
O905        O  0.14856124  0.50345880  0.68747846    -0.38990
O906        O  0.15130859  0.55202943  0.73071594    -0.38930
O907        O  0.17644634  0.66830277  0.03457566    -0.39640
O908        O  0.23312937  0.66587895  0.52918107    -0.39700
C909        C  0.14927403  0.60338386  0.87244460    -0.11980
C910        C  0.12153777  0.56705048  0.84727341     0.05020
C911        C  0.12437243  0.53024955  0.85163026    -0.07270
C912        C  0.14976096  0.52931413  0.88709603    -0.08010
C913        C  0.17399467  0.56470211  0.91523428    -0.02570
C914        C  0.17646824  0.60315280  0.90510201     0.04250
N915        N  0.20664313  0.64212810  0.92744455     0.66760
H916        H  0.14994842  0.63259761  0.86625334     0.15660
H917        H  0.14937387  0.50038492  0.89409337     0.15370
N918        N  0.10123555  0.49344593  0.82263943     0.74460
O919        O  0.19959458  0.67188566  0.93111530    -0.38990
O920        O  0.24271811  0.64915378  0.93772805    -0.38930
O921        O  0.07353708  0.48996391  0.79492635    -0.39640
O922        O  0.10856175  0.46375491  0.82465421    -0.39700
C923        C  0.07882546  0.71376956  0.61377861    -0.11980
C924        C  0.10355039  0.70405082  0.64131566     0.05020
C925        C  0.14737788  0.73173219  0.64276668    -0.07270
C926        C  0.16565358  0.76419931  0.61142199    -0.08010
C927        C  0.14103325  0.77053173  0.57969850    -0.02570
C928        C  0.09691658  0.74703403  0.58319841     0.04250
N929        N  0.07031734  0.75548775  0.55490806     0.66760
H930        H  0.04514643  0.69460143  0.61554688     0.15660
H931        H  0.19944180  0.78263488  0.60980583     0.15370
N932        N  0.17382656  0.72571129  0.67369574     0.74460
O933        O  0.03254760  0.72714768  0.04709350    -0.38990
O934        O  0.08358705  0.79208057  0.03996778    -0.38930
O935        O  0.20794805  0.73046855  0.66111930    -0.39640
O936        O  0.16698347  0.72331579  0.71494548    -0.39700
C937        C  0.14214161  0.74345427  0.83732772    -0.11980
C938        C  0.11775776  0.69987800  0.84474286     0.05020
C939        C  0.11177795  0.68526010  0.88905228    -0.07270
C940        C  0.13272789  0.71368791  0.92424034    -0.08010
C941        C  0.15450573  0.75751386  0.91790609    -0.02570
C942        C  0.15909027  0.77270253  0.87349564     0.04250
N943        N  0.17840106  0.81701228  0.86446015     0.66760
H944        H  0.14585710  0.75478991  0.80339871     0.15660
H945        H  0.12955461  0.70106626  0.95750472     0.15370
N946        N  0.08156048  0.64246044  0.89972672     0.74460
O947        O  0.19950332  0.83201629  0.82987191    -0.38990
O948        O  0.16936141  0.83982798  0.88708043    -0.38930
O949        O  0.09072964  0.62345685  0.92867879    -0.39640
O950        O  0.04350242  0.62817813  0.88958214    -0.39700
C951        C  0.64163247  0.18923029  0.61377088    -0.11980
C952        C  0.65469242  0.17649527  0.65186059     0.05020
C953        C  0.69538621  0.18257022  0.65416126    -0.07270
C954        C  0.72066308  0.19885930  0.61643939    -0.08010
C955        C  0.70643823  0.20941179  0.57740102    -0.02570
C956        C  0.66689778  0.20583172  0.57677687     0.04250
N957        N  0.65202036  0.21913289  0.53911372     0.66760
H958        H  0.61085803  0.18545221  0.61242838     0.15660
H959        H  0.75139055  0.20259393  0.61697040     0.15370
N960        N  0.71180818  0.17345212  0.69404888     0.74460
O961        O  0.61351248  0.19951481  0.52832235    -0.38990
O962        O  0.67646639  0.25313179  0.01968687    -0.38930
O963        O  0.69416630  0.16770796  0.73091224    -0.39640
O964        O  0.74648919  0.17528897  0.69362800    -0.39700
C965        C  0.69619332  0.15566846  0.90211024    -0.11980
C966        C  0.71333284  0.19841275  0.91294605     0.05020
C967        C  0.70629803  0.22419072  0.88332795    -0.07270
C968        C  0.67916540  0.20544453  0.84585431    -0.08010
C969        C  0.65881385  0.16172578  0.83707237    -0.02570
C970        C  0.67013717  0.13726391  0.86393329     0.04250
N971        N  0.65505472  0.09368956  0.85365782     0.66760
H972        H  0.70299405  0.13637711  0.92384004     0.15660
H973        H  0.67155031  0.22483457  0.82534830     0.15370
N974        N  0.72423725  0.26873681  0.89178586     0.74460
O975        O  0.65886334  0.08307640  0.81482355    -0.38990
O976        O  0.64493492  0.06739114  0.88476419    -0.38930
O977        O  0.73395345  0.29375561  0.85948009    -0.39640
O978        O  0.72623441  0.28268353  0.93081028    -0.39700
C979        C  0.52281643  0.20333072  0.63969904    -0.11980
C980        C  0.51281357  0.16231240  0.62705437     0.05020
C981        C  0.49879624  0.14796502  0.58269130    -0.07270
C982        C  0.49496843  0.17485344  0.55275282    -0.08010
C983        C  0.50833535  0.21697339  0.56422325    -0.02570
C984        C  0.52242268  0.23151304  0.60848626     0.04250
N985        N  0.53944904  0.27502536  0.62157702     0.66760
H986        H  0.53470132  0.21486639  0.67336640     0.15660
H987        H  0.48331159  0.16339767  0.51900290     0.15370
N988        N  0.48930722  0.10712839  0.56677929     0.74460
O989        O  0.53645038  0.28428943  0.66132743    -0.38990
O990        O  0.56279264  0.30443631  0.59579081    -0.38930
O991        O  0.47201919  0.07543259  0.59157873    -0.39640
O992        O  0.49405466  0.10165963  0.52624252    -0.39700
C993        C  0.50072103  0.22083100  0.88026316    -0.11980
C994        C  0.53609436  0.24532485  0.90815287     0.05020
C995        C  0.57105230  0.24045773  0.90525600    -0.07270
C996        C  0.56690074  0.20640514  0.88029964    -0.08010
C997        C  0.52978382  0.17897599  0.85610358    -0.02570
C998        C  0.49700647  0.18767439  0.85387533     0.04250
N999        N  0.45907991  0.16239053  0.82728163     0.66760
H1000       H  0.47393113  0.22458380  0.88263228     0.15660
H1001       H  0.59304873  0.20149098  0.87916524     0.15370
N1002       N  0.60983129  0.26845949  0.92931063     0.74460
O1003       O  0.43829422  0.17844628  0.81314191    -0.38990
O1004       O  0.44384346  0.12322773  0.82153018    -0.38930
O1005       O  0.61826958  0.30464274  0.94213074    -0.39640
O1006       O  0.63741832  0.25870627  0.93442118    -0.39700
C1007       C  0.36071849  0.99686083  0.60223540    -0.11980
C1008       C  0.35387067  0.95785747  0.58674562     0.05020
C1009       C  0.37547000  0.94009285  0.60742278    -0.07270
C1010       C  0.40542227  0.96323584  0.64122515    -0.08010
C1011       C  0.41471427  0.00369611  0.65438508    -0.02570
C1012       C  0.39071587  0.02010377  0.63637937     0.04250
N1013       N  0.39836608  0.06110275  0.64950174     0.66760
H1014       H  0.34370422  0.00998268  0.58614768     0.15660
H1015       H  0.42383022  0.95078175  0.65527932     0.15370
N1016       N  0.36939822  0.90007915  0.59308440     0.74460
O1017       O  0.38821819  0.08137317  0.62338150    -0.38990
O1018       O  0.41194757  0.07576827  0.68841191    -0.38930
O1019       O  0.36531428  0.89019375  0.55212206    -0.39640
O1020       O  0.37236876  0.87627167  0.62122958    -0.39700
C1021       C  0.37992482  0.00377763  0.92083344    -0.11980
C1022       C  0.35104295  0.96011033  0.92193295     0.05020
C1023       C  0.34983566  0.93440311  0.88617452    -0.07270
C1024       C  0.37802147  0.95291401  0.85143657    -0.08010
C1025       C  0.40998374  0.99586034  0.85305696    -0.02570
C1026       C  0.41082351  0.02146964  0.88885459     0.04250
N1027       N  0.44491846  0.06392260  0.89679283     0.66760
H1028       H  0.38104689  0.02400541  0.94768321     0.15660
H1029       H  0.37707497  0.93252329  0.82489001     0.15370
N1030       N  0.32325008  0.88922073  0.88633153     0.74460
O1031       O  0.43708572  0.09205439  0.90757264    -0.38990
O1032       O  0.48059434  0.06989627  0.90699971    -0.38930
O1033       O  0.30376707  0.86957642  0.85090031    -0.39640
O1034       O  0.32508357  0.86859689  0.91902199    -0.39700
C1035       C  0.48895363  0.92375521  0.66634397    -0.11980
C1036       C  0.52587254  0.96311477  0.67421868     0.05020
C1037       C  0.56049083  0.97482943  0.64678588    -0.07270
C1038       C  0.55542322  0.95008908  0.60923187    -0.08010
C1039       C  0.51746699  0.91289026  0.59924591    -0.02570
C1040       C  0.48428664  0.89810773  0.62923232     0.04250
N1041       N  0.44566073  0.85823506  0.62232083     0.66760
H1042       H  0.46261355  0.91406881  0.68763243     0.15660
H1043       H  0.58129031  0.96033809  0.58703122     0.15370
N1044       N  0.60051357  0.01242423  0.65534233     0.74460
O1045       O  0.42336579  0.83913611  0.65515122    -0.38990
O1046       O  0.43275207  0.84244588  0.58363856    -0.38930
O1047       O  0.61907647  0.01800631  0.69285265    -0.39640
O1048       O  0.62000083  0.03670515  0.62369829    -0.39700
C1049       C  0.54324443  0.93326119  0.90632970    -0.11980
C1050       C  0.50931936  0.91749620  0.93504246     0.05020
C1051       C  0.48019772  0.93085511  0.92972465    -0.07270
C1052       C  0.48873838  0.96333804  0.89990758    -0.08010
C1053       C  0.52393614  0.98091027  0.87320971    -0.02570
C1054       C  0.55048440  0.96420235  0.87446744     0.04250
N1055       N  0.58554714  0.97917104  0.84563158     0.66760
H1056       H  0.56524010  0.92262481  0.91008244     0.15660
H1057       H  0.46756641  0.97508085  0.89730962     0.15370
N1058       N  0.44226369  0.91209421  0.95448194     0.74460
O1059       O  0.61600500  0.97490278  0.85664829    -0.38990
O1060       O  0.58451800  0.99265423  0.80718516    -0.38930
O1061       O  0.42435196  0.87376908  0.96547053    -0.39640
O1062       O  0.42418736  0.93237394  0.96141409    -0.39700
loop_ 
_geom_bond_atom_site_label_1 
_geom_bond_atom_site_label_2 
_geom_bond_distance 
_geom_bond_site_symmetry_2 
_ccdc_geom_bond_type 
C1            C2   1.400       .  A
C1            C6   1.407       .  A
C1          C519   1.486       .  S
C2          C534   1.392       .  A
C2            H7   1.084       .  S
C3            C4   1.394       .  A
C3          C533   1.392       .  A
C3          C508   1.472       .  S
C4            C5   1.417       .  A
C4            H8   1.080       .  S
C5          C537   1.417   1_554  A
C5          C720   1.508       .  S
C6          C536   1.417       .  A
C6            H9   1.078       .  S
C10          C15   1.406       .  A
C10         C542   1.400       .  A
C10         C491   1.494       .  S
C11          C12   1.391       .  A
C11         C541   1.400   1_554  A
C11         H547   1.084       .  S
C12          C13   1.398       .  A
C12         C477   1.472       .  S
C13          C14   1.415       .  A
C13          H17   1.080       .  S
C14         C546   1.418   1_554  A
C14         C655   1.504       .  S
C15         C545   1.418       .  A
C15          H18   1.081       .  S
H16         C542   1.084       .  S
O19          C27   1.264       .  A
O19         Co39   1.902       .  S
O20          C28   1.260       .  A
O20         Co40   1.977       .  S
O21          C29   1.268       .  A
O21         Co41   2.020   1_565  S
O22          C30   1.286       .  A
O22         Co42   2.048       .  S
O23          C29   1.255   1_545  A
O23         Co40   1.960       .  S
O24          C30   1.266       .  A
O24         Co39   1.955       .  S
O25          C28   1.267       .  A
O25         Co42   2.008       .  S
O26          C27   1.289       .  A
O26         Co41   2.088       .  S
C27         C522   1.471   1_545  S
C28         C421   1.476       .  S
C29         C505   1.487       .  S
C30         C438   1.496       .  S
O31          C44   1.261       .  A
O31         Co39   2.009       .  S
O32          C45   1.277       .  A
O32         Co40   2.021       .  S
O33          C46   1.270   1_565  A
O33         Co41   1.898   1_565  S
O34          C47   1.261       .  A
O34         Co42   1.953       .  S
O35          C47   1.277       .  A
O35         Co40   2.032       .  S
O36          C46   1.295       .  A
O36         Co39   2.102       .  S
O37          C44   1.246       .  A
O37         Co42   1.951       .  S
O38          C45   1.264       .  A
O38         Co41   1.964       .  S
Co39         O43   2.007       .  S
Co40         O43   2.014       .  S
Co41         O43   2.025       .  S
Co42         O43   2.021       .  S
C44         C466   1.468       .  S
C45         C480   1.471       .  S
C46         C494   1.493   1_545  S
C47         C449   1.478       .  S
C48          C53   1.400       .  A
C48         C580   1.389       .  A
C48         C463   1.475       .  S
C49          C50   1.390   1_556  A
C49         C579   1.389       .  A
C49          H54   1.085       .  S
C50          C51   1.405       .  A
C50         C452   1.482       .  S
C51          C52   1.420   1_554  A
C51          H55   1.082       .  S
C52         C584   1.417       .  A
C52         C162   1.502       .  S
C53         C583   1.417       .  A
C53          H56   1.079       .  S
C57          C58   1.399       .  A
C57          C62   1.399       .  A
C57         C435   1.483       .  S
C58          C59   1.414       .  A
C58          H63   1.080       .  S
C59         C591   1.415       .  A
C59         C106   1.503       .  S
C60          C61   1.405       .  A
C60         C590   1.415   1_554  A
C60          H64   1.081       .  S
C61         C593   1.403   1_554  A
C61         C424   1.488       .  S
C62         C592   1.403       .  A
C62          H65   1.084       .  S
O66          C74   1.250       .  A
O66         Co86   1.968       .  S
O67          C75   1.268       .  A
O67         Co87   1.974   1_655  S
O68          C76   1.294       .  A
O68         Co88   2.095       .  S
O69          C77   1.276       .  A
O69         Co89   2.045       .  S
O70          C76   1.271       .  A
O70         Co87   1.900       .  S
O71          C77   1.262       .  A
O71         Co86   1.958   1_655  S
O72          C75   1.276       .  A
O72         Co89   2.032       .  S
O73          C74   1.258       .  A
O73         Co88   2.018       .  S
C74         C407   1.477       .  S
C75         C309   1.486       .  S
C76         C393   1.482       .  S
C77         C323   1.492       .  S
O78          C91   1.264       .  A
O78         Co86   2.009   1_655  S
O79          C92   1.289       .  A
O79         Co87   2.087       .  S
O80          C93   1.265       .  A
O80         Co88   1.964       .  S
O81          C94   1.252       .  A
O81         Co89   1.962       .  S
O82          C94   1.266   1_455  A
O82         Co87   2.013       .  S
O83          C93   1.283       .  A
O83         Co86   2.039       .  S
O84          C91   1.257       .  A
O84         Co89   1.970       .  S
O85          C92   1.263       .  A
O85         Co88   1.910       .  S
Co86         O90   2.009       .  S
Co87         O90   2.011       .  S
Co88         O90   2.034       .  S
Co89         O90   2.043   1_655  S
C91         C351   1.467       .  S
C92         C368   1.468       .  S
C93         C379   1.479       .  S
C94         C340   1.466       .  S
C95         C100   1.401       .  A
C95         C627   1.397       .  A
C95         C382   1.485       .  S
C96          C97   1.398   1_556  A
C96         C626   1.397       .  A
C96         H632   1.084       .  S
C97          C98   1.405       .  A
C97         C365   1.488       .  S
C98          C99   1.419   1_554  A
C98         H102   1.078       .  S
C99         C631   1.422       .  A
C99         C702   1.515       .  S
C100        C630   1.422       .  A
C100        H103   1.078       .  S
H101        C627   1.084       .  S
C104        C105   1.395       .  A
C104        C109   1.387       .  A
C104        C354   1.467       .  S
C105        C106   1.416       .  A
C105        H110   1.079       .  S
C106        C638   1.420       .  A
C107        C108   1.407       .  A
C107        C637   1.420   1_554  A
C107        H111   1.080       .  S
C108        C640   1.391   1_554  A
C108        C337   1.479       .  S
C109        C639   1.391       .  A
C109        H112   1.086       .  S
C113        C118   1.399       .  A
C113        C645   1.398       .  A
C113        C326   1.483       .  S
C114        C115   1.405   1_556  A
C114        C644   1.398       .  A
C114        H119   1.084       .  S
C115        C116   1.401       .  A
C115        C312   1.491       .  S
C116        C117   1.414   1_554  A
C116        H120   1.082       .  S
C117        C649   1.416       .  A
C117        C711   1.501       .  S
C118        C648   1.416       .  A
C118        H121   1.079       .  S
C122        C123   1.403       .  A
C122        C127   1.404       .  A
C122        C410   1.497       .  S
C123        C124   1.415       .  A
C123        H128   1.080       .  S
C124        C656   1.417       .  A
C124        C545   1.504       .  S
C125        C126   1.403       .  A
C125        C655   1.417       .  A
C125        H129   1.080       .  S
C126        C658   1.397   1_554  A
C126        C396   1.492       .  S
C127        C657   1.397       .  A
C127        H130   1.082       .  S
O131        C139   1.276       .  A
O131       Co151   2.048       .  S
O132        C140   1.299       .  A
O132       Co152   2.111       .  S
O133        C141   1.244       .  A
O133       Co153   1.970       .  S
O134        C142   1.269       .  A
O134       Co154   1.992       .  S
O135        C141   1.268       .  A
O135       Co152   2.008       .  S
O136        C142   1.272       .  A
O136       Co151   2.011       .  S
O137        C140   1.270       .  A
O137       Co154   1.897       .  S
O138        C139   1.250       .  A
O138       Co153   1.941       .  S
C139        C295   1.474       .  S
C140        C197   1.495       .  S
C141        C284   1.495       .  S
C142        C211   1.497       .  S
O143        C156   1.253       .  A
O143       Co151   1.965       .  S
O144        C157   1.265       .  A
O144       Co152   1.985       .  S
O145        C158   1.274       .  A
O145       Co153   2.065       .  S
O146        C159   1.295       .  A
O146       Co154   2.115       .  S
O147        C159   1.261       .  A
O147       Co152   1.892       .  S
O148        C158   1.251       .  A
O148       Co151   1.958       .  S
O149        C156   1.266       .  A
O149       Co154   2.029       .  S
O150        C157   1.285       .  A
O150       Co153   2.061       .  S
Co151       O155   2.009       .  S
Co152       O155   1.997       .  S
Co153       O155   2.063       .  S
Co154       O155   2.053       .  S
C156        C239   1.480       .  S
C157        C253   1.502       .  S
C158        C267   1.501       .  S
C159        C225   1.482       .  S
C160        C161   1.400       .  A
C160        C165   1.391   1_554  A
C160        C298   1.483       .  S
C161        C162   1.416   1_554  A
C161        H166   1.082       .  S
C162        C694   1.422       .  A
C163        C164   1.403       .  A
C163        C693   1.422       .  A
C163        H167   1.079       .  S
C164        C696   1.401       .  A
C164        C281   1.486       .  S
C165        C695   1.401       .  A
C165        H168   1.086       .  S
C169        C170   1.406       .  A
C169        C705   1.399   1_554  A
C169        C214   1.490       .  S
C170        C702   1.424   1_554  A
C170        H175   1.079       .  S
C171        C172   1.419       .  A
C171        C701   1.424       .  A
C171        C630   1.515       .  S
C172        C173   1.401       .  A
C172        H176   1.077       .  S
C173        C174   1.397       .  A
C173        C200   1.492       .  S
C174        C700   1.399       .  A
C174        H708   1.085       .  S
H177        C705   1.085       .  S
C178        C179   1.403       .  A
C178        C183   1.413   1_554  A
C178        C270   1.510       .  S
C179        C711   1.415   1_554  A
C179        H184   1.081       .  S
C180        C181   1.415       .  A
C180        C710   1.415       .  A
C180        C648   1.501       .  S
C181        C182   1.398       .  A
C181        H185   1.078       .  S
C182        C714   1.412       .  A
C182        C256   1.498       .  S
C183        C713   1.412       .  A
C183        H186   1.083       .  S
C187        C188   1.411       .  A
C187        C192   1.411       .  A
C187        C242   1.520       .  S
C188        C720   1.413       .  A
C188        H193   1.075       .  S
C189        C190   1.412       .  A
C189        C719   1.413       .  A
C189        C536   1.508       .  S
C190        C191   1.400       .  A
C190        H194   1.079       .  S
C191        C723   1.399       .  A
C191        C228   1.483       .  S
C192        C722   1.399   1_554  A
C192        H195   1.075       .  S
C196        C197   1.409       .  A
C196        C201   1.408       .  A
C196        H203   1.083       .  S
C197        C198   1.415       .  A
C198        C199   1.397       .  A
C198        N205   1.425       .  S
C199        C200   1.401       .  A
C199        H204   1.084       .  S
C200        C201   1.418       .  A
C201        N202   1.436       .  S
N202        O206   1.263       .  A
N202        O207   1.262       .  A
N205        O208   1.261       .  A
N205        O209   1.262       .  A
C210        C211   1.410       .  A
C210        C215   1.423       .  A
C210        H217   1.082       .  S
C211        C212   1.415       .  A
C212        C213   1.389       .  A
C212        N219   1.427       .  S
C213        C214   1.397       .  A
C213        H218   1.086       .  S
C214        C215   1.424       .  A
C215        N216   1.445       .  S
N216        O220   1.263       .  A
N216        O221   1.262       .  A
N219        O222   1.261       .  A
N219        O223   1.262       .  A
C224        C225   1.408       .  A
C224        C229   1.419       .  A
C224        H231   1.083       .  S
C225        C226   1.414       .  A
C226        C227   1.394       .  A
C226        N233   1.437       .  S
C227        C228   1.400       .  A
C227        H232   1.085       .  S
C228        C229   1.417       .  A
C229        N230   1.443       .  S
N230        O234   1.263       .  A
N230        O235   1.262       .  A
N233        O236   1.261       .  A
N233        O237   1.262       .  A
C238        C239   1.395       .  A
C238        C243   1.391       .  A
C238        H245   1.076       .  S
C239        C240   1.408       .  A
C240        C241   1.415       .  A
C240        N247   1.442       .  S
C241        C242   1.424       .  A
C241        H246   1.079       .  S
C242        C243   1.425       .  A
C243        N244   1.433       .  S
N244        O248   1.263       .  A
N244        O780   1.262       .  A
N247        O250   1.263       .  A
N247        O251   1.263       .  A
O249        N775   1.262       .  A
C252        C253   1.414       .  A
C252        C257   1.434       .  A
C252        H259   1.083       .  S
C253        C254   1.399       .  A
C254        C255   1.381       .  A
C254        N261   1.408       .  S
C255        C256   1.388       .  A
C255        H260   1.085       .  S
C256        C257   1.427       .  A
C257        N258   1.441       .  S
N258        O262   1.263       .  A
N258        O263   1.262       .  A
N261        O264   1.261       .  A
N261        O265   1.263       .  A
C266        C267   1.407       .  A
C266        C271   1.422       .  A
C266        H273   1.083       .  S
C267        C268   1.420       .  A
C268        C269   1.395       .  A
C268        N275   1.430       .  S
C269        C270   1.400       .  A
C269        H274   1.083       .  S
C270        C271   1.427       .  A
C271        N272   1.438       .  S
N272        O276   1.263       .  A
N272        O277   1.263       .  A
N275        O278   1.259       .  A
N275        O279   1.263       .  A
C280        C281   1.408       .  A
C280        C285   1.425       .  A
C280        H287   1.083       .  S
C281        C282   1.403       .  A
C282        C283   1.379       .  A
C282        N289   1.437       .  S
C283        C284   1.384       .  A
C283        H288   1.064       .  S
C284        C285   1.429       .  A
C285        N286   1.441       .  S
N286        O290   1.263       .  A
N286        O291   1.263       .  A
N289        O292   1.263       .  A
N289        O824   1.261       .  A
O293        N820   1.261       .  A
C294        C295   1.399       .  A
C294        C299   1.404       .  A
C294        H301   1.083       .  S
C295        C296   1.416       .  A
C296        C297   1.405       .  A
C296        N303   1.439       .  S
C297        C298   1.402       .  A
C297        H302   1.084       .  S
C298        C299   1.423       .  A
C299        N300   1.444       .  S
N300        O304   1.264       .  A
N300        O305   1.261       .  A
N303        O306   1.261       .  A
N303        O307   1.263       .  A
C308        C309   1.406       .  A
C308        C313   1.415       .  A
C308        H315   1.084       .  S
C309        C310   1.415       .  A
C310        C311   1.391       .  A
C310        N317   1.429       .  S
C311        C312   1.398       .  A
C311        H316   1.084       .  S
C312        C313   1.421       .  A
C313        N314   1.439       .  S
N314        O318   1.262       .  A
N314        O319   1.263       .  A
N317        O320   1.261       .  A
N317        O321   1.261   1_655  A
C322        C323   1.408       .  A
C322        C327   1.397       .  A
C322        H329   1.083       .  S
C323        C324   1.417       .  A
C324        C325   1.411       .  A
C324        N331   1.431       .  S
C325        C326   1.405       .  A
C325        H330   1.083       .  S
C326        C327   1.413       .  A
C327        N328   1.441       .  S
N328        O332   1.263       .  A
N328        O333   1.262       .  A
N331        O334   1.262       .  A
N331        O335   1.262       .  A
C336        C337   1.410       .  A
C336        C341   1.408       .  A
C336        H343   1.084       .  S
C337        C338   1.410       .  A
C338        C339   1.397       .  A
C338        N345   1.436       .  S
C339        C340   1.402       .  A
C339        H344   1.084       .  S
C340        C341   1.412       .  A
C341        N342   1.443   1_655  S
N342        O346   1.263       .  A
N342        O347   1.262       .  A
N345        O348   1.261       .  A
N345        O349   1.263       .  A
C350        C351   1.401       .  A
C350        C355   1.402       .  A
C350        H357   1.082       .  S
C351        C352   1.405       .  A
C352        C353   1.397       .  A
C352        N359   1.430   1_655  S
C353        C354   1.402       .  A
C353        H358   1.085       .  S
C354        C355   1.414       .  A
C355        N356   1.442       .  S
N356        O360   1.263       .  A
N356        O361   1.262       .  A
N359        O362   1.261       .  A
N359        O363   1.263       .  A
C364        C365   1.406       .  A
C364        C369   1.409       .  A
C364        H371   1.083       .  S
C365        C366   1.416       .  A
C366        C367   1.399       .  A
C366        N373   1.437       .  S
C367        C368   1.398       .  A
C367        H372   1.084       .  S
C368        C369   1.413       .  A
C369        N370   1.441       .  S
N370        O374   1.263       .  A
N370        O375   1.262       .  A
N373        O377   1.262       .  A
N373        O907   1.263       .  A
O376        N904   1.263       .  A
C378        C379   1.401       .  A
C378        C383   1.394       .  A
C378        H385   1.084       .  S
C379        C380   1.425       .  A
C380        C381   1.417       .  A
C380        N387   1.447       .  S
C381        C382   1.405       .  A
C381        H386   1.083       .  S
C382        C383   1.410       .  A
C383        N384   1.440       .  S
N384        O388   1.263       .  A
N384        O389   1.263       .  A
N387        O390   1.261       .  A
N387        O391   1.263       .  A
C392        C393   1.402       .  A
C392        C397   1.407       .  A
C392        H399   1.081       .  S
C393        C394   1.412       .  A
C394        C395   1.405       .  A
C394        N401   1.436       .  S
C395        C396   1.406       .  A
C395        H400   1.083       .  S
C396        C397   1.418       .  A
C397        N398   1.442       .  S
N398        O933   1.263       .  A
N398        O934   1.263       .  A
N401        O404   1.262       .  A
N401        O405   1.262       .  A
O402        N929   1.263       .  A
O403        N929   1.263       .  A
C406        C407   1.403       .  A
C406        C411   1.414       .  A
C406        H413   1.084       .  S
C407        C408   1.412       .  A
C408        C409   1.390       .  A
C408        N415   1.432       .  S
C409        C410   1.403       .  A
C409        H414   1.083       .  S
C410        C411   1.423       .  A
C411        N412   1.437       .  S
N412        O416   1.263       .  A
N412        O417   1.263       .  A
N415        O418   1.263       .  A
N415        O419   1.262       .  A
C420        C421   1.403       .  A
C420        C425   1.397       .  A
C420        H427   1.084       .  S
C421        C422   1.417       .  A
C422        C423   1.414       .  A
C422        N429   1.446       .  S
C423        C424   1.407       .  A
C423        H428   1.083       .  S
C424        C425   1.413       .  A
C425        N426   1.439       .  S
N426        O430   1.263       .  A
N426        O962   1.262       .  A
N429        O432   1.262       .  A
N429        O433   1.263       .  A
O431        N957   1.262       .  A
C434        C435   1.398       .  A
C434        C439   1.404       .  A
C434        H441   1.084       .  S
C435        C436   1.418       .  A
C436        C437   1.406       .  A
C436        N443   1.441       .  S
C437        C438   1.406       .  A
C437        H442   1.083       .  S
C438        C439   1.422       .  A
C439        N440   1.435       .  S
N440        O444   1.263       .  A
N440        O445   1.263       .  A
N443        O446   1.263       .  A
N443        O447   1.262       .  A
C448        C449   1.411       .  A
C448        C453   1.405       .  A
C448        H455   1.084       .  S
C449        C450   1.412       .  A
C450        C451   1.397       .  A
C450        N457   1.439       .  S
C451        C452   1.407       .  A
C451        H456   1.084       .  S
C452        C453   1.411       .  A
C453        N454   1.440       .  S
N454        O458   1.263       .  A
N454        O459   1.263       .  A
N457        O460   1.259       .  A
N457        O461   1.263       .  A
C462        C463   1.402       .  A
C462        C467   1.402       .  A
C462        H469   1.084       .  S
C463        C464   1.413       .  A
C464        C465   1.400       .  A
C464        N471   1.442       .  S
C465        C466   1.402       .  A
C465        H470   1.084       .  S
C466        C467   1.419       .  A
C467        N468   1.443       .  S
N468        O472   1.263       .  A
N468        O473   1.262       .  A
N471        O474   1.263       .  A
N471        O475   1.262       .  A
C476        C477   1.405       .  A
C476        C481   1.407   1_565  A
C476        H483   1.084   1_565  S
C477        C478   1.410       .  A
C478        C479   1.399       .  A
C478        N485   1.440       .  S
C479        C480   1.404   1_565  A
C479        H484   1.084       .  S
C480        C481   1.414       .  A
C481        N482   1.443       .  S
N482        O486   1.263       .  A
N482        O487   1.262       .  A
N485        O488   1.262       .  A
N485        O489   1.262       .  A
C490        C491   1.404   1_545  A
C490        C495   1.399       .  A
C490        H497   1.084       .  S
C491        C492   1.417       .  A
C492        C493   1.405       .  A
C492        N499   1.435       .  S
C493        C494   1.409       .  A
C493        H498   1.083       .  S
C494        C495   1.420   1_565  A
C495        N496   1.434       .  S
N496        O500   1.262       .  A
N496        O501   1.262       .  A
N499        O502   1.262       .  A
N499        O503   1.263       .  A
C504        C505   1.407       .  A
C504        C509   1.409       .  A
C504        H511   1.083       .  S
C505        C506   1.419       .  A
C506        C507   1.396       .  A
C506        N513   1.436   1_565  S
C507        C508   1.397       .  A
C507        H512   1.085       .  S
C508        C509   1.415       .  A
C509        N510   1.442       .  S
N510        O514   1.263       .  A
N510        O515   1.262       .  A
N513        O516   1.263       .  A
N513        O517   1.263       .  A
C518        C519   1.408       .  A
C518        C523   1.409       .  A
C518        H525   1.083       .  S
C519        C520   1.415       .  A
C520        C521   1.400       .  A
C520        N527   1.442       .  S
C521        C522   1.402       .  A
C521        H526   1.083       .  S
C522        C523   1.415       .  A
C523        N524   1.442       .  S
N524        O528   1.263       .  A
N524        O529   1.262       .  A
N527        O530   1.263       .  A
N527        O531   1.263       .  A
C532        C533   1.400   1_556  A
C532        C537   1.407       .  A
C532       C1050   1.486       .  S
C533        H538   1.084       .  S
C534        C535   1.394       .  A
C534       C1039   1.472       .  S
C535        C536   1.417       .  A
C535        H539   1.080       .  S
C537        H540   1.078       .  S
C541        C546   1.406       .  A
C541       C1022   1.494       .  S
C542        C543   1.391       .  A
C543        C544   1.398       .  A
C543       C1008   1.472       .  S
C544        C545   1.415       .  A
C544        H548   1.080       .  S
C546        H549   1.081       .  S
O550        C558   1.264       .  A
O550       Co570   1.902       .  S
O551        C559   1.260       .  A
O551       Co571   1.977       .  S
O552        C560   1.268       .  A
O552       Co572   2.020   1_565  S
O553        C561   1.286       .  A
O553       Co573   2.048       .  S
O554        C560   1.255   1_545  A
O554       Co571   1.960       .  S
O555        C561   1.266       .  A
O555       Co570   1.955       .  S
O556        C559   1.267       .  A
O556       Co573   2.008       .  S
O557        C558   1.289       .  A
O557       Co572   2.088       .  S
C558       C1053   1.471   1_545  S
C559        C952   1.476       .  S
C560       C1036   1.487       .  S
C561        C969   1.496       .  S
O562        C575   1.261       .  A
O562       Co570   2.009       .  S
O563        C576   1.277       .  A
O563       Co571   2.021       .  S
O564        C577   1.270   1_565  A
O564       Co572   1.898   1_565  S
O565        C578   1.261       .  A
O565       Co573   1.953       .  S
O566        C578   1.277       .  A
O566       Co571   2.032       .  S
O567        C577   1.295       .  A
O567       Co570   2.102       .  S
O568        C575   1.246       .  A
O568       Co573   1.951       .  S
O569        C576   1.264       .  A
O569       Co572   1.964       .  S
Co570       O574   2.007       .  S
Co571       O574   2.014       .  S
Co572       O574   2.025       .  S
Co573       O574   2.021       .  S
C575        C997   1.468       .  S
C576       C1011   1.471       .  S
C577       C1025   1.493   1_545  S
C578        C980   1.478       .  S
C579        C584   1.400       .  A
C579        C994   1.475       .  S
C580        C581   1.390       .  A
C580        H585   1.085       .  S
C581        C582   1.405       .  A
C581        C983   1.482       .  S
C582        C583   1.420       .  A
C582        H586   1.082       .  S
C583        C693   1.502       .  S
C584        H587   1.079       .  S
C588        C589   1.399       .  A
C588        C593   1.399       .  A
C588        C966   1.483       .  S
C589        C590   1.414       .  A
C589        H594   1.080       .  S
C590        C637   1.503       .  S
C591        C592   1.405       .  A
C591        H595   1.081       .  S
C592        C955   1.488       .  S
C593        H596   1.084       .  S
O597        C605   1.250       .  A
O597       Co617   1.968       .  S
O598        C606   1.268       .  A
O598       Co618   1.974   1_655  S
O599        C607   1.294       .  A
O599       Co619   2.095       .  S
O600        C608   1.276       .  A
O600       Co620   2.045       .  S
O601        C607   1.271       .  A
O601       Co618   1.900       .  S
O602        C608   1.262       .  A
O602       Co617   1.958   1_655  S
O603        C606   1.276       .  A
O603       Co620   2.032       .  S
O604        C605   1.258       .  A
O604       Co619   2.018       .  S
C605        C938   1.477       .  S
C606        C840   1.486       .  S
C607        C924   1.482       .  S
C608        C854   1.492       .  S
O609        C622   1.264       .  A
O609       Co617   2.009   1_655  S
O610        C623   1.289       .  A
O610       Co618   2.087       .  S
O611        C624   1.265       .  A
O611       Co619   1.964       .  S
O612        C625   1.252       .  A
O612       Co620   1.962       .  S
O613        C625   1.266   1_455  A
O613       Co618   2.013       .  S
O614        C624   1.283       .  A
O614       Co617   2.039       .  S
O615        C622   1.257       .  A
O615       Co620   1.970       .  S
O616        C623   1.263       .  A
O616       Co619   1.910       .  S
Co617       O621   2.009       .  S
Co618       O621   2.011       .  S
Co619       O621   2.034       .  S
Co620       O621   2.043   1_655  S
C622        C882   1.467       .  S
C623        C899   1.468       .  S
C624        C910   1.479       .  S
C625        C871   1.466       .  S
C626        C631   1.401       .  A
C626        C913   1.485       .  S
C627        C628   1.398       .  A
C628        C629   1.405       .  A
C628        C896   1.488       .  S
C629        C630   1.419       .  A
C629        H633   1.078       .  S
C631        H634   1.078       .  S
C635        C636   1.394       .  A
C635        C640   1.387       .  A
C635        C885   1.467       .  S
C636        C637   1.416       .  A
C636        H641   1.079       .  S
C638        C639   1.407       .  A
C638        H642   1.080       .  S
C639        C868   1.479       .  S
C640        H643   1.086       .  S
C644        C649   1.399       .  A
C644        C857   1.483       .  S
C645        C646   1.405       .  A
C645        H650   1.084       .  S
C646        C647   1.401       .  A
C646        C843   1.491       .  S
C647        C648   1.414       .  A
C647        H651   1.082       .  S
C649        H652   1.079       .  S
C653        C654   1.403       .  A
C653        C658   1.404       .  A
C653        C941   1.497       .  S
C654        C655   1.415   1_556  A
C654        H659   1.080       .  S
C656        C657   1.403       .  A
C656        H660   1.080       .  S
C657        C927   1.492       .  S
C658        H661   1.082       .  S
O662        C670   1.276       .  A
O662       Co682   2.048       .  S
O663        C671   1.299       .  A
O663       Co683   2.111       .  S
O664        C672   1.244       .  A
O664       Co684   1.970       .  S
O665        C673   1.269       .  A
O665       Co685   1.992       .  S
O666        C672   1.268       .  A
O666       Co683   2.008       .  S
O667        C673   1.272       .  A
O667       Co682   2.011       .  S
O668        C671   1.270       .  A
O668       Co685   1.897       .  S
O669        C670   1.250       .  A
O669       Co684   1.941       .  S
C670        C826   1.474       .  S
C671        C728   1.495       .  S
C672        C815   1.495       .  S
C673        C742   1.497       .  S
O674        C687   1.253       .  A
O674       Co682   1.965       .  S
O675        C688   1.265       .  A
O675       Co683   1.985       .  S
O676        C689   1.274       .  A
O676       Co684   2.065       .  S
O677        C690   1.295       .  A
O677       Co685   2.115       .  S
O678        C690   1.261       .  A
O678       Co683   1.892       .  S
O679        C689   1.251       .  A
O679       Co682   1.958       .  S
O680        C687   1.266       .  A
O680       Co685   2.029       .  S
O681        C688   1.285       .  A
O681       Co684   2.061       .  S
Co682       O686   2.009       .  S
Co683       O686   1.997       .  S
Co684       O686   2.062       .  S
Co685       O686   2.053       .  S
C687        C770   1.480       .  S
C688        C784   1.502       .  S
C689        C798   1.501       .  S
C690        C756   1.482       .  S
C691        C692   1.400       .  A
C691        C696   1.391       .  A
C691        C829   1.483       .  S
C692        C693   1.416       .  A
C692        H697   1.082       .  S
C694        C695   1.403       .  A
C694        H698   1.079       .  S
C695        C812   1.485       .  S
C696        H699   1.086       .  S
C700        C701   1.406       .  A
C700        C745   1.490       .  S
C701        H706   1.079       .  S
C702        C703   1.419       .  A
C703        C704   1.401       .  A
C703        H707   1.077       .  S
C704        C705   1.397       .  A
C704        C731   1.492       .  S
C709        C710   1.403       .  A
C709        C714   1.413       .  A
C709        C801   1.510       .  S
C710        H715   1.081       .  S
C711        C712   1.415       .  A
C712        C713   1.398       .  A
C712        H716   1.078       .  S
C713        C787   1.498       .  S
C714        H717   1.083       .  S
C718        C719   1.411       .  A
C718        C723   1.411       .  A
C718        C773   1.520       .  S
C719        H724   1.075       .  S
C720        C721   1.412   1_554  A
C721        C722   1.400       .  A
C721        H725   1.079       .  S
C722        C759   1.483       .  S
C723        H726   1.075       .  S
C727        C728   1.409       .  A
C727        C732   1.408       .  A
C727        H734   1.083       .  S
C728        C729   1.415       .  A
C729        C730   1.397       .  A
C729        N736   1.425       .  S
C730        C731   1.401       .  A
C730        H735   1.084       .  S
C731        C732   1.418       .  A
C732        N733   1.436       .  S
N733        O737   1.263       .  A
N733        O738   1.262       .  A
N736        O739   1.261       .  A
N736        O740   1.262       .  A
C741        C742   1.410       .  A
C741        C746   1.423       .  A
C741        H748   1.082       .  S
C742        C743   1.415       .  A
C743        C744   1.389       .  A
C743        N750   1.427       .  S
C744        C745   1.397       .  A
C744        H749   1.086       .  S
C745        C746   1.424       .  A
C746        N747   1.445       .  S
N747        O751   1.263       .  A
N747        O752   1.262       .  A
N750        O753   1.261       .  A
N750        O754   1.262       .  A
C755        C756   1.408       .  A
C755        C760   1.419       .  A
C755        H762   1.083       .  S
C756        C757   1.414       .  A
C757        C758   1.394       .  A
C757        N764   1.437       .  S
C758        C759   1.400       .  A
C758        H763   1.085       .  S
C759        C760   1.417       .  A
C760        N761   1.443       .  S
N761        O765   1.263       .  A
N761        O766   1.262       .  A
N764        O767   1.261       .  A
N764        O768   1.262       .  A
C769        C770   1.395       .  A
C769        C774   1.391       .  A
C769        H776   1.076       .  S
C770        C771   1.408       .  A
C771        C772   1.415       .  A
C771        N778   1.442       .  S
C772        C773   1.424       .  A
C772        H777   1.079       .  S
C773        C774   1.425       .  A
C774        N775   1.433       .  S
N775        O779   1.263       .  A
N778        O781   1.263       .  A
N778        O782   1.263       .  A
C783        C784   1.414       .  A
C783        C788   1.434       .  A
C783        H790   1.083       .  S
C784        C785   1.399       .  A
C785        C786   1.381       .  A
C785        N792   1.408       .  S
C786        C787   1.388       .  A
C786        H791   1.085       .  S
C787        C788   1.427       .  A
C788        N789   1.441       .  S
N789        O793   1.263       .  A
N789        O794   1.262       .  A
N792        O795   1.261       .  A
N792        O796   1.263       .  A
C797        C798   1.407       .  A
C797        C802   1.422       .  A
C797        H804   1.083       .  S
C798        C799   1.420       .  A
C799        C800   1.395       .  A
C799        N806   1.430       .  S
C800        C801   1.400       .  A
C800        H805   1.082       .  S
C801        C802   1.427       .  A
C802        N803   1.438       .  S
N803        O807   1.263       .  A
N803        O808   1.263       .  A
N806        O809   1.259       .  A
N806        O810   1.263       .  A
C811        C812   1.407       .  A
C811        C816   1.425       .  A
C811        H818   1.083       .  S
C812        C813   1.403       .  A
C813        C814   1.379       .  A
C813        N820   1.437       .  S
C814        C815   1.384       .  A
C814        H819   1.067       .  S
C815        C816   1.429       .  A
C816        N817   1.441       .  S
N817        O821   1.263       .  A
N817        O822   1.263       .  A
N820        O823   1.263       .  A
C825        C826   1.399       .  A
C825        C830   1.404       .  A
C825        H832   1.083       .  S
C826        C827   1.416       .  A
C827        C828   1.405       .  A
C827        N834   1.439       .  S
C828        C829   1.402       .  A
C828        H833   1.084       .  S
C829        C830   1.423       .  A
C830        N831   1.444       .  S
N831        O835   1.264       .  A
N831        O836   1.261       .  A
N834        O837   1.261       .  A
N834        O838   1.263       .  A
C839        C840   1.406       .  A
C839        C844   1.415       .  A
C839        H846   1.084       .  S
C840        C841   1.415       .  A
C841        C842   1.391       .  A
C841        N848   1.429       .  S
C842        C843   1.398       .  A
C842        H847   1.084       .  S
C843        C844   1.421       .  A
C844        N845   1.439       .  S
N845        O849   1.262       .  A
N845        O850   1.263       .  A
N848        O851   1.261       .  A
N848        O852   1.261   1_655  A
C853        C854   1.408       .  A
C853        C858   1.397       .  A
C853        H860   1.083       .  S
C854        C855   1.417       .  A
C855        C856   1.411       .  A
C855        N862   1.431       .  S
C856        C857   1.405       .  A
C856        H861   1.083       .  S
C857        C858   1.413       .  A
C858        N859   1.441       .  S
N859        O863   1.263       .  A
N859        O864   1.262       .  A
N862        O865   1.262       .  A
N862        O866   1.262       .  A
C867        C868   1.410       .  A
C867        C872   1.408       .  A
C867        H874   1.084       .  S
C868        C869   1.410       .  A
C869        C870   1.397       .  A
C869        N876   1.436       .  S
C870        C871   1.402       .  A
C870        H875   1.084       .  S
C871        C872   1.412       .  A
C872        N873   1.443   1_655  S
N873        O877   1.263       .  A
N873        O878   1.262       .  A
N876        O879   1.261       .  A
N876        O880   1.263       .  A
C881        C882   1.401       .  A
C881        C886   1.402       .  A
C881        H888   1.082       .  S
C882        C883   1.405       .  A
C883        C884   1.397       .  A
C883        N890   1.430   1_655  S
C884        C885   1.402       .  A
C884        H889   1.085       .  S
C885        C886   1.414       .  A
C886        N887   1.442       .  S
N887        O891   1.263       .  A
N887        O892   1.262       .  A
N890        O893   1.261       .  A
N890        O894   1.263       .  A
C895        C896   1.406       .  A
C895        C900   1.409       .  A
C895        H902   1.083       .  S
C896        C897   1.416       .  A
C897        C898   1.399       .  A
C897        N904   1.437       .  S
C898        C899   1.398       .  A
C898        H903   1.084       .  S
C899        C900   1.413       .  A
C900        N901   1.441       .  S
N901        O905   1.263       .  A
N901        O906   1.262       .  A
N904        O908   1.262       .  A
C909        C910   1.401       .  A
C909        C914   1.394       .  A
C909        H916   1.084       .  S
C910        C911   1.425       .  A
C911        C912   1.417       .  A
C911        N918   1.447       .  S
C912        C913   1.405       .  A
C912        H917   1.083       .  S
C913        C914   1.410       .  A
C914        N915   1.440       .  S
N915        O919   1.263       .  A
N915        O920   1.263       .  A
N918        O921   1.261       .  A
N918        O922   1.263       .  A
C923        C924   1.402       .  A
C923        C928   1.407       .  A
C923        H930   1.081       .  S
C924        C925   1.412       .  A
C925        C926   1.405       .  A
C925        N932   1.436       .  S
C926        C927   1.406       .  A
C926        H931   1.083       .  S
C927        C928   1.418       .  A
C928        N929   1.442       .  S
N932        O935   1.262       .  A
N932        O936   1.262       .  A
C937        C938   1.403       .  A
C937        C942   1.414       .  A
C937        H944   1.084       .  S
C938        C939   1.412       .  A
C939        C940   1.390       .  A
C939        N946   1.432       .  S
C940        C941   1.403       .  A
C940        H945   1.083       .  S
C941        C942   1.423       .  A
C942        N943   1.437       .  S
N943        O947   1.263       .  A
N943        O948   1.263       .  A
N946        O949   1.263       .  A
N946        O950   1.262       .  A
C951        C952   1.403       .  A
C951        C956   1.397       .  A
C951        H958   1.084       .  S
C952        C953   1.417       .  A
C953        C954   1.414       .  A
C953        N960   1.446       .  S
C954        C955   1.407       .  A
C954        H959   1.083       .  S
C955        C956   1.413       .  A
C956        N957   1.439       .  S
N957        O961   1.263       .  A
N960        O963   1.262       .  A
N960        O964   1.263       .  A
C965        C966   1.398       .  A
C965        C970   1.404       .  A
C965        H972   1.084       .  S
C966        C967   1.418       .  A
C967        C968   1.406       .  A
C967        N974   1.441       .  S
C968        C969   1.406       .  A
C968        H973   1.083       .  S
C969        C970   1.422       .  A
C970        N971   1.435       .  S
N971        O975   1.263       .  A
N971        O976   1.263       .  A
N974        O977   1.263       .  A
N974        O978   1.262       .  A
C979        C980   1.411       .  A
C979        C984   1.405       .  A
C979        H986   1.084       .  S
C980        C981   1.412       .  A
C981        C982   1.397       .  A
C981        N988   1.439       .  S
C982        C983   1.407       .  A
C982        H987   1.084       .  S
C983        C984   1.411       .  A
C984        N985   1.440       .  S
N985        O989   1.263       .  A
N985        O990   1.263       .  A
N988        O991   1.259       .  A
N988        O992   1.263       .  A
C993        C994   1.402       .  A
C993        C998   1.402       .  A
C993       H1000   1.084       .  S
C994        C995   1.413       .  A
C995        C996   1.400       .  A
C995       N1002   1.442       .  S
C996        C997   1.402       .  A
C996       H1001   1.084       .  S
C997        C998   1.419       .  A
C998        N999   1.443       .  S
N999       O1003   1.263       .  A
N999       O1004   1.262       .  A
N1002      O1005   1.263       .  A
N1002      O1006   1.262       .  A
C1007      C1008   1.405       .  A
C1007      C1012   1.407   1_565  A
C1007      H1014   1.084   1_565  S
C1008      C1009   1.410       .  A
C1009      C1010   1.399       .  A
C1009      N1016   1.440       .  S
C1010      C1011   1.404   1_565  A
C1010      H1015   1.084       .  S
C1011      C1012   1.414       .  A
C1012      N1013   1.443       .  S
N1013      O1017   1.263       .  A
N1013      O1018   1.262       .  A
N1016      O1019   1.262       .  A
N1016      O1020   1.262       .  A
C1021      C1022   1.404   1_545  A
C1021      C1026   1.399       .  A
C1021      H1028   1.084       .  S
C1022      C1023   1.417       .  A
C1023      C1024   1.405       .  A
C1023      N1030   1.435       .  S
C1024      C1025   1.409       .  A
C1024      H1029   1.083       .  S
C1025      C1026   1.420   1_565  A
C1026      N1027   1.434       .  S
N1027      O1031   1.262       .  A
N1027      O1032   1.262       .  A
N1030      O1033   1.262       .  A
N1030      O1034   1.263       .  A
C1035      C1036   1.407       .  A
C1035      C1040   1.409       .  A
C1035      H1042   1.083       .  S
C1036      C1037   1.419       .  A
C1037      C1038   1.396       .  A
C1037      N1044   1.436   1_565  S
C1038      C1039   1.397       .  A
C1038      H1043   1.085       .  S
C1039      C1040   1.415       .  A
C1040      N1041   1.442       .  S
N1041      O1045   1.263       .  A
N1041      O1046   1.262       .  A
N1044      O1047   1.263       .  A
N1044      O1048   1.263       .  A
C1049      C1050   1.408       .  A
C1049      C1054   1.409       .  A
C1049      H1056   1.083       .  S
C1050      C1051   1.415       .  A
C1051      C1052   1.400       .  A
C1051      N1058   1.442       .  S
C1052      C1053   1.402       .  A
C1052      H1057   1.083       .  S
C1053      C1054   1.415       .  A
C1054      N1055   1.442       .  S
N1055      O1059   1.263       .  A
N1055      O1060   1.262       .  A
N1058      O1061   1.263       .  A
N1058      O1062   1.263       .  A
