geometry optimzed in LAMMPS
_audit_creation_date              2020-11-30 
_audit_creation_method            'lammps2cif' 
_symmetry_space_group_name_H-M    'P1' 
_symmetry_Int_Tables_number       1 
_symmetry_cell_setting            triclinic 
loop_ 
_symmetry_equiv_pos_as_xyz 
  x,y,z 
_cell_length_a                    33.826666072027884 
_cell_length_b                    33.82508002632604 
_cell_length_c                    33.694879153838826 
_cell_angle_alpha                 93.14164418930248 
_cell_angle_beta                  89.13091008976777 
_cell_angle_gamma                 89.38194340345126 
loop_ 
_atom_site_label 
_atom_site_type_symbol 
_atom_site_fract_x 
_atom_site_fract_y 
_atom_site_fract_z 
_atom_site_charge 
C1          C  0.12895393  0.33401714  0.12816107     0.03660
C2          C  0.10732948  0.30695945  0.15069994    -0.12490
C3          C  0.07096025  0.31880325  0.16869382     0.01160
C4          C  0.05604663  0.35606901  0.16444976    -0.11020
C5          C  0.07753796  0.38394329  0.14565216     0.03650
C6          C  0.11409282  0.37337975  0.12682873    -0.10440
H7          H  0.11808322  0.27697759  0.15349441     0.09250
H8          H  0.02749157  0.36426706  0.17796925     0.06780
H9          H  0.13025315  0.39521142  0.11097207     0.06620
C10         C  0.11290917  0.00345239  0.17858214     0.03660
C11         C  0.10147625  0.51177606  0.16749779    -0.12490
C12         C  0.06677550  0.52436361  0.14949327     0.01160
C13         C  0.07193719  0.53839832  0.11186256    -0.11020
C14         C  0.07226349  0.03561603  0.12878549     0.03650
C15         C  0.10791701  0.01539387  0.13876497    -0.10440
H16         H  0.10091341  0.50909270  0.19935862     0.09250
H17         H  0.04671418  0.55310690  0.09949615     0.06780
H18         H  0.13051908  0.00864797  0.11625380     0.06620
Zn19       Zn  0.23826363  0.99031435  0.19821333     1.49720
Zn20       Zn  0.24605791  0.06192324  0.26476336     1.49360
Zn21       Zn  0.18206091  0.99417253  0.27354683     1.49110
Zn22       Zn  0.28658555  0.47330515  0.26453321     1.49480
O23         O  0.23573785  0.00544848  0.25493498    -1.83590
O24         O  0.25669479  0.03652999  0.16906885    -0.74230
O25         O  0.19751424  0.08728636  0.29088009    -0.74050
O26         O  0.16257275  0.47487465  0.20377692    -0.73560
O27         O  0.25049698  0.08890994  0.21152011    -0.74240
O28         O  0.20177185  0.47744880  0.15057596    -0.73840
O29         O  0.14920722  0.04534359  0.27767124    -0.74420
O30         O  0.25802140  0.43953707  0.30186990    -0.73810
O31         O  0.29600046  0.07110035  0.29984928    -0.74570
O32         O  0.19356194  0.45332247  0.29632073    -0.73960
O33         O  0.31534627  0.00957564  0.31052147    -0.74430
O34         O  0.32150876  0.43875474  0.22648433    -0.74340
O35         O  0.30193491  0.44749158  0.16482578    -0.74130
C36         C  0.25480722  0.07403469  0.17611479     0.77660
C37         C  0.16185367  0.08050157  0.28098455     0.78150
C38         C  0.16745320  0.47940396  0.16657762     0.77110
C39         C  0.22210396  0.43400203  0.31148382     0.77490
C40         C  0.31972084  0.04682191  0.31563499     0.78630
C41         C  0.32562459  0.43159695  0.18898788     0.77680
C42         C  0.37869268  0.25402895  0.44430407     0.03660
C43         C  0.41440471  0.24470358  0.46337917    -0.12490
C44         C  0.44632580  0.23058880  0.43897676     0.01160
C45         C  0.44972714  0.25028557  0.40377823    -0.11020
C46         C  0.41504240  0.25161849  0.38171885     0.03650
C47         C  0.37881687  0.25537763  0.40236532    -0.10440
H48         H  0.41341046  0.23724750  0.49423490     0.09250
H49         H  0.47772018  0.24915049  0.38773574     0.06780
H50         H  0.35151673  0.25757305  0.38619048     0.06620
C51         C  0.35511126  0.06113710  0.33772830     0.03660
C52         C  0.37757666  0.09276261  0.32372206    -0.12490
C53         C  0.41582192  0.09909505  0.33890346     0.01160
C54         C  0.43269614  0.06672939  0.35609304    -0.11020
C55         C  0.40813094  0.05145201  0.38502761     0.03650
C56         C  0.38643259  0.53481433  0.34931883    -0.10440
H57         H  0.36416977  0.11413753  0.30516569     0.09250
H58         H  0.46404790  0.06813665  0.36198695     0.06780
H59         H  0.37034354  0.51227947  0.36420684     0.06620
C60         C  0.28503298  0.16350060  0.12018834     0.03660
C61         C  0.25878435  0.14168788  0.14402656    -0.12490
C62         C  0.26215657  0.09967230  0.14222493     0.01160
C63         C  0.28465191  0.08214814  0.11090358    -0.11020
C64         C  0.31999548  0.10093323  0.10401684     0.03650
C65         C  0.31890961  0.14279377  0.10447090    -0.10440
H66         H  0.23692833  0.15679045  0.16335053     0.09250
H67         H  0.28486751  0.05012756  0.10641067     0.06780
H68         H  0.34398039  0.15860095  0.09315501     0.06620
C69         C  0.94716499  0.14019454  0.16146499     0.03660
C70         C  0.44968221  0.11018303  0.18022411    -0.12490
C71         C  0.44473427  0.07510498  0.15654282     0.01160
C72         C  0.45678358  0.07598087  0.11682555    -0.11020
C73         C  0.94807768  0.11034350  0.09359008     0.03650
C74         C  0.94893599  0.14427226  0.11972124    -0.10440
H75         H  0.44594051  0.10952426  0.21211337     0.09250
H76         H  0.45855693  0.04857784  0.09866664     0.06780
H77         H  0.95031776  0.17331166  0.10776171     0.06620
Zn78       Zn  0.49418746  0.26129806  0.20847463     1.49720
Zn79       Zn  0.46858319  0.20447659  0.27226485     1.49360
Zn80       Zn  0.02502320  0.27117304  0.27513474     1.49110
Zn81       Zn  0.44693828  0.29259341  0.28719941     1.49480
O82         O  0.97358794  0.25847516  0.25948057    -1.83590
O83         O  0.47865283  0.21064243  0.17888104    -0.74230
O84         O  0.01531067  0.17104860  0.27339998    -0.74050
O85         O  0.05451730  0.29440767  0.23038939    -0.73560
O86         O  0.44008853  0.18326787  0.22387396    -0.74240
O87         O  0.01301761  0.28448745  0.18008999    -0.73840
O88         O  0.05533161  0.22204332  0.27937420    -0.74420
O89         O  0.47198859  0.32930993  0.32566168    -0.73810
O90         O  0.44148905  0.21422606  0.32606698    -0.74570
O91         O  0.02269232  0.30646730  0.32570014    -0.73960
O92         O  0.40448147  0.26676967  0.31558999    -0.74430
O93         O  0.42321501  0.32777631  0.24960596    -0.74340
O94         O  0.45948422  0.30793637  0.19652074    -0.74130
C95         C  0.45640855  0.18274014  0.18925463     0.77660
C96         C  0.04998073  0.18514254  0.27344294     0.78150
C97         C  0.04624348  0.29555118  0.19376133     0.77110
C98         C  0.99783510  0.33006274  0.34407007     0.77490
C99         C  0.41828972  0.24239366  0.33884577     0.78630
C100        C  0.43377539  0.33133207  0.21389359     0.77680
C101        C  0.23087151  0.35376426  0.38586434     0.03660
C102        C  0.22448249  0.39300943  0.37379072    -0.12490
C103        C  0.21447677  0.39811763  0.33327010     0.01160
C104        C  0.20491394  0.36442263  0.30924893    -0.11020
C105        C  0.20419873  0.32719206  0.32557610     0.03650
C106        C  0.23189509  0.32351295  0.35526124    -0.10440
H107        H  0.22857239  0.41829065  0.39435734     0.09250
H108        H  0.19627825  0.36752340  0.27878563     0.06780
H109        H  0.24095802  0.29369116  0.36137292     0.06620
C110        C  0.51544327  0.37323457  0.35466487     0.03660
C111        C  0.51669077  0.38953535  0.39445603    -0.12490
C112        C  0.52118164  0.43114324  0.40028340     0.01160
C113        C  0.06883683  0.38368367  0.43049964    -0.11020
C114        C  0.07047486  0.34386837  0.41714302     0.03650
C115        C  0.03571709  0.32631378  0.40431886    -0.10440
H116        H  0.51470910  0.37079722  0.41942002     0.09250
H117        H  0.09415254  0.39700106  0.44510157     0.06780
H118        H  0.03677917  0.29457017  0.39730421     0.06620
Zn119      Zn  0.02444991  0.49248058  0.98338826     1.49720
Zn120      Zn  0.44570128  0.03859398  0.99175439     1.49360
Zn121      Zn  0.02096911  0.08491192  0.02279653     1.49110
Zn122      Zn  0.99741110  0.06492373  0.43559177     1.49480
O123        O  0.99649500  0.03973575  0.99386639    -1.83590
O124        O  0.45857562  0.45624183  0.99400786    -0.74230
O125        O  0.43720770  0.08091037  0.03713737    -0.74050
O126        O  0.04467127  0.07167899  0.07637280    -0.73560
O127        O  0.40739549  0.49358981  0.01276098    -0.74240
O128        O  0.06973822  0.49186807  0.02602099    -0.73840
O129        O  0.97724619  0.12423564  0.03186639    -0.74420
O130        O  0.04459615  0.10286395  0.42786215    -0.73810
O131        O  0.40887309  0.04096442  0.45634312    -0.74570
O132        O  0.06537423  0.10648765  0.99119061    -0.73960
O133        O  0.44888043  0.08470429  0.43306252    -0.74430
O134        O  0.03778186  0.47859191  0.41536135    -0.74340
O135        O  0.02861055  0.45256397  0.47390875    -0.74130
C136        C  0.42204204  0.45968149  0.00346795     0.77660
C137        C  0.45929331  0.10728321  0.05434914     0.78150
C138        C  0.08840958  0.52064976  0.04349018     0.77110
C139        C  0.06998170  0.11674712  0.45253845     0.77490
C140        C  0.42159511  0.05944673  0.42703629     0.78630
C141        C  0.03464594  0.44859767  0.43655667     0.77680
C142        C  0.08550901  0.16189479  0.25910393     0.03660
C143        C  0.09999585  0.12624911  0.27487349    -0.12490
C144        C  0.13931000  0.11348569  0.26419509     0.01160
C145        C  0.16157399  0.13695488  0.23899971    -0.11020
C146        C  0.15171499  0.17697666  0.23889066     0.03650
C147        C  0.11122776  0.18275640  0.23421030    -0.10440
H148        H  0.08268546  0.11080057  0.29627854     0.09250
H149        H  0.19155938  0.12840361  0.23110831     0.06780
H150        H  0.10185908  0.21107360  0.22371449     0.06620
C151        C  0.12144670  0.11667061  0.95018280     0.03660
C152        C  0.11369162  0.14278806  0.39788618    -0.12490
C153        C  0.14978083  0.15952100  0.38600456     0.01160
C154        C  0.17676454  0.17118410  0.41438310    -0.11020
C155        C  0.17457804  0.16199027  0.97128662     0.03650
C156        C  0.13695108  0.14561905  0.97816147    -0.10440
H157        H  0.09299437  0.13242171  0.37552982     0.09250
H158        H  0.20443670  0.18322128  0.40419826     0.06780
H159        H  0.11971503  0.15606570  0.00404969     0.06620
Zn160      Zn  0.29921451  0.27161397  0.05339800     1.49720
Zn161      Zn  0.20905916  0.24800911  0.06399822     1.49360
Zn162      Zn  0.23038683  0.33599579  0.04351871     1.49110
Zn163      Zn  0.25500972  0.26446873  0.46809053     1.49480
O164        O  0.24608128  0.28043727  0.03397946    -1.83590
O165        O  0.30127867  0.22611868  0.09282374    -0.74230
O166        O  0.16889897  0.28274985  0.09594922    -0.74050
O167        O  0.28070357  0.36964374  0.04101346    -0.73560
O168        O  0.23793162  0.21035900  0.09916963    -0.74240
O169        O  0.32308085  0.32696232  0.06549241    -0.73840
O170        O  0.18801380  0.34485157  0.08872629    -0.74420
O171        O  0.24338207  0.30459416  0.43053727    -0.73810
O172        O  0.18138521  0.20884647  0.02658444    -0.74570
O173        O  0.22429250  0.36207455  0.45892532    -0.73960
O174        O  0.21981244  0.21883143  0.46125783    -0.74430
O175        O  0.30916874  0.25036940  0.44941881    -0.74340
O176        O  0.34156689  0.26778940  0.50347548    -0.74130
C177        C  0.27434070  0.20315180  0.10521152     0.77660
C178        C  0.16425924  0.31999065  0.10353503     0.78150
C179        C  0.31613280  0.35850589  0.04696974     0.77110
C180        C  0.23331625  0.34048746  0.42759835     0.77490
C181        C  0.18899284  0.20556080  0.47788283     0.78630
C182        C  0.34132304  0.25717788  0.46695120     0.77680
C183        C  0.36000949  0.40547038  0.17464973     0.03660
C184        C  0.38059269  0.38311306  0.20242529    -0.12490
C185        C  0.41582218  0.36253071  0.19111415     0.01160
C186        C  0.43255335  0.36784255  0.15427669    -0.11020
C187        C  0.40984544  0.38209448  0.12463691     0.03650
C188        C  0.37354106  0.40215739  0.13438678    -0.10440
H189        H  0.36882548  0.38091842  0.23228772     0.09250
H190        H  0.46054217  0.35352168  0.14605851     0.06780
H191        H  0.35622564  0.41457550  0.11131768     0.06620
C192        C  0.41277405  0.42718332  0.53071727     0.03660
C193        C  0.41371397  0.39220077  0.97452822    -0.12490
C194        C  0.40866801  0.35365799  0.98586729     0.01160
C195        C  0.37006817  0.34595205  0.99853095    -0.11020
C196        C  0.35841330  0.37914954  0.53563538     0.03650
C197        C  0.37108975  0.41903565  0.53209850    -0.10440
H198        H  0.43906345  0.39775218  0.95576590     0.09250
H199        H  0.36161281  0.31560653  0.99979626     0.06780
H200        H  0.34947670  0.44264757  0.53130683     0.06620
C201        C  0.45214953  0.38371253  0.06394974    -0.25790
C202        C  0.42180626  0.36528381  0.08497998    -0.13860
C203        C  0.41486550  0.32437773  0.07401090     0.36770
C204        C  0.42919192  0.30887163  0.03674890    -0.25230
C205        C  0.44197829  0.33628228  0.00954993    -0.14470
C206        C  0.46651339  0.36511250  0.02811355     0.37850
N207        N  0.50339989  0.37584565  0.01023843    -0.88720
H208        H  0.46525121  0.41073912  0.07573745     0.18970
H209        H  0.41973861  0.27977832  0.02598547     0.18960
N210        N  0.39311597  0.29854518  0.09865722    -0.87750
H211        H  0.51649933  0.39853322  0.02761012     0.36340
H212        H  0.49815744  0.38681979  0.98246009     0.41440
H213        H  0.38132585  0.31341686  0.12412553     0.41060
H214        H  0.41286018  0.27705850  0.10793725     0.35940
C215        C  0.14381940  0.22343222  0.29772136    -0.25790
C216        C  0.17069304  0.20263984  0.27163690    -0.13860
C217        C  0.20276814  0.18552340  0.29123832     0.36770
C218        C  0.19474431  0.16897751  0.32775551    -0.25230
C219        C  0.15735830  0.17519762  0.34656638    -0.14470
C220        C  0.13332051  0.20612205  0.33347194     0.37850
N221        N  0.09857982  0.21916736  0.35587685    -0.88720
H222        H  0.12459868  0.24567744  0.28618050     0.18970
H223        H  0.21714163  0.15089074  0.34089965     0.18960
N224        N  0.24079530  0.17961482  0.27222816    -0.87750
H225        H  0.08644686  0.24443791  0.34408046     0.36340
H226        H  0.10701342  0.22773486  0.38470760     0.41440
H227        H  0.24033452  0.19074574  0.24388142     0.41060
H228        H  0.24653177  0.14921290  0.26859821     0.35940
C229        C  0.10249974  0.34455742  0.35138433    -0.25790
C230        C  0.10376799  0.33218819  0.39060642    -0.13860
C231        C  0.13127083  0.30331294  0.40021072     0.36790
C232        C  0.16018741  0.29115214  0.37169970    -0.25230
C233        C  0.16418438  0.31111522  0.33582058    -0.14470
C234        C  0.13034425  0.33112677  0.32303998     0.37850
N235        N  0.12428413  0.33914809  0.28215465    -0.88720
H236        H  0.07894668  0.36384938  0.34232391     0.18970
H237        H  0.18272654  0.27036620  0.38000457     0.18960
N238        N  0.13001366  0.28704340  0.43868781    -0.87750
H239        H  0.14614120  0.32517292  0.26396783     0.36340
H240        H  0.12574290  0.36973328  0.27933514     0.41440
H241        H  0.13592856  0.30996262  0.45977756     0.41060
H242        H  0.15257432  0.26601074  0.44077512     0.35940
C243        C  0.35483797  0.08917357  0.16566638    -0.25790
C244        C  0.35219814  0.08068742  0.12419222    -0.13860
C245        C  0.37028731  0.04473548  0.10859323     0.36770
C246        C  0.39719522  0.02524606  0.13287703    -0.25230
C247        C  0.41174854  0.04731141  0.16627063    -0.14470
C248        C  0.38117840  0.06732948  0.18767381     0.37850
N249        N  0.38171285  0.07169513  0.23001975    -0.88720
H250        H  0.33557523  0.11105142  0.18091268     0.18970
H251        H  0.41406192  0.00008742  0.12021194     0.18960
N252        N  0.36336200  0.02840464  0.06909362    -0.87750
H253        H  0.35485760  0.06101068  0.24043919     0.36340
H254        H  0.38244718  0.10195434  0.23807650     0.41440
H255        H  0.34419623  0.04636031  0.05383948     0.41060
H256        H  0.34948089  0.00117787  0.07165429     0.35940
C257        C  0.41053246  0.16805236  0.42900475    -0.25790
C258        C  0.44747244  0.18671571  0.42881884    -0.13860
C259        C  0.47624851  0.17125467  0.40087263     0.36770
C260        C  0.46432031  0.14639538  0.36859943    -0.25230
C261        C  0.42436009  0.13544015  0.36408142    -0.14470
C262        C  0.39729052  0.14712414  0.39514836     0.37850
N263        N  0.35644084  0.13644487  0.39356742    -0.88720
H264        H  0.38891569  0.17533983  0.45235710     0.18970
H265        H  0.48646955  0.13475902  0.34735785     0.18960
N266        N  0.51693363  0.18265562  0.40326198    -0.87750
H267        H  0.33939794  0.16247229  0.39582731     0.36340
H268        H  0.34977230  0.12008086  0.41820286     0.41440
H269        H  0.52128811  0.20164068  0.42831573     0.41060
H270        H  0.52408448  0.19816034  0.37822529     0.35940
C271        C  0.02219043  0.47619100  0.12034540    -0.25790
C272        C  0.03053759  0.49968650  0.15517433    -0.13860
C273        C  0.03060768  0.47815284  0.18956770     0.36770
C274        C  0.04873653  0.44057502  0.18634746    -0.25230
C275        C  0.05954223  0.42358675  0.14823787    -0.14470
C276        C  0.04325998  0.44034892  0.11465691     0.37850
N277        N  0.04802895  0.42217281  0.07546212    -0.88720
H278        H  0.01125644  0.49002764  0.09434381     0.18970
H279        H  0.05531830  0.42544429  0.21304524     0.18960
N280        N  0.02097124  0.49718204  0.22749070    -0.87750
H281        H  0.03832198  0.39298331  0.07578724     0.36340
H282        H  0.07818954  0.42129037  0.06828252     0.41440
H283        H  0.04600432  0.49648315  0.24527211     0.41060
H284        H  0.99917719  0.48041139  0.24078819     0.35940
C285        C  0.12630713  0.33947445  0.60110601     0.03660
C286        C  0.10685801  0.30987758  0.62262759    -0.12490
C287        C  0.06705953  0.31522693  0.63496456     0.01160
C288        C  0.04692311  0.34850925  0.62458673    -0.11020
C289        C  0.06867927  0.38137966  0.61616846     0.03650
C290        C  0.10787050  0.37708709  0.60130940    -0.10440
H291        H  0.12221934  0.28292683  0.62959282     0.09250
H292        H  0.01638237  0.35281965  0.63451837     0.06780
H293        H  0.12377449  0.40245398  0.59141015     0.06620
C294        C  0.11445474  0.99134058  0.65680304     0.03660
C295        C  0.08812369  0.51069137  0.69227216    -0.12490
C296        C  0.05195595  0.52267435  0.67669037     0.01160
C297        C  0.05639229  0.54798278  0.64550544    -0.11020
C298        C  0.07294152  0.99327325  0.59774604     0.03650
C299        C  0.11121447  0.99243202  0.61477054    -0.10440
H300        H  0.08889660  0.50174202  0.72255892     0.09250
H301        H  0.03059729  0.56454387  0.63743984     0.06780
H302        H  0.13742702  0.99344599  0.59604442     0.06620
Zn303      Zn  0.24148100  0.98906091  0.68315460     1.49720
Zn304      Zn  0.25749802  0.06113207  0.74583553     1.49360
Zn305      Zn  0.18516351  0.00729817  0.76035918     1.49110
Zn306      Zn  0.27384830  0.46726286  0.77626807     1.49480
O307        O  0.23931704  0.00711414  0.73941563    -1.83590
O308        O  0.25720553  0.03565124  0.65095615    -0.74230
O309        O  0.21846677  0.09001280  0.78101365    -0.74050
O310        O  0.15075010  0.46003094  0.71449478    -0.73560
O311        O  0.25478234  0.08884134  0.69271391    -0.74240
O312        O  0.18737954  0.48225957  0.66570237    -0.73840
O313        O  0.16226907  0.06400443  0.76200461    -0.74420
O314        O  0.25115979  0.43818308  0.82001784    -0.73810
O315        O  0.31142461  0.06409455  0.77398209    -0.74570
O316        O  0.18596946  0.44627482  0.81467453    -0.73960
O317        O  0.31685383  0.00471503  0.79850401    -0.74430
O318        O  0.30096869  0.42555543  0.74253490    -0.74340
O319        O  0.27425216  0.42726443  0.68269167    -0.74130
C320        C  0.25578597  0.07338803  0.65729285     0.77660
C321        C  0.18290490  0.09427924  0.77034546     0.78150
C322        C  0.15371622  0.47742333  0.68160044     0.77110
C323        C  0.21639440  0.43347170  0.83304784     0.77490
C324        C  0.32936010  0.03966000  0.79550015     0.78630
C325        C  0.29693038  0.41068900  0.70743981     0.77680
C326        C  0.37329838  0.23920824  0.95062927     0.03660
C327        C  0.39846566  0.20901868  0.96395773    -0.12490
C328        C  0.43425049  0.20058739  0.94288559     0.01160
C329        C  0.45153337  0.23401728  0.92828416    -0.11020
C330        C  0.42648993  0.25479461  0.90435498     0.03650
C331        C  0.38642416  0.25988544  0.91720973    -0.10440
H332        H  0.38711907  0.18809382  0.98438142     0.09250
H333        H  0.48250953  0.23285940  0.91983767     0.06780
H334        H  0.36620221  0.27813897  0.90137524     0.06620
C335        C  0.36696531  0.05085410  0.81512507     0.03660
C336        C  0.39272239  0.07617961  0.79565665    -0.12490
C337        C  0.42820890  0.08748412  0.81380705     0.01160
C338        C  0.44339248  0.05936816  0.83823966    -0.11020
C339        C  0.41648618  0.04790230  0.86723892     0.03650
C340        C  0.36505604  0.54332684  0.86295561    -0.10440
H341        H  0.38189488  0.09228217  0.77142653     0.09250
H342        H  0.47427047  0.06157959  0.84605975     0.06780
H343        H  0.34678252  0.52590708  0.88184130     0.06620
C344        C  0.27799384  0.16274246  0.59599622     0.03660
C345        C  0.25527493  0.14086991  0.62339977    -0.12490
C346        C  0.25970935  0.09871736  0.62226652     0.01160
C347        C  0.28049179  0.08134668  0.58952031    -0.11020
C348        C  0.31468207  0.10137738  0.58002730     0.03650
C349        C  0.30911632  0.14214547  0.57487703    -0.10440
H350        H  0.23610206  0.15610048  0.64539419     0.09250
H351        H  0.28157690  0.04935249  0.58586992     0.06780
H352        H  0.33144650  0.15817930  0.55916749     0.06620
C353        C  0.96557594  0.13866344  0.68455071     0.03660
C354        C  0.44700979  0.10130946  0.70388438    -0.12490
C355        C  0.43438148  0.06966233  0.67872155     0.01160
C356        C  0.45544058  0.06482266  0.64271516    -0.11020
C357        C  0.96398936  0.10174937  0.61998607     0.03650
C358        C  0.96920142  0.13772633  0.64226313    -0.10440
H359        H  0.43810106  0.10266313  0.73470845     0.09250
H360        H  0.45414754  0.03672592  0.62572436     0.06780
H361        H  0.97572279  0.16430029  0.62699431     0.06620
Zn362      Zn  0.47519201  0.25894781  0.71511274     1.49720
Zn363      Zn  0.48348584  0.21188074  0.78895526     1.49360
Zn364      Zn  0.04946820  0.29136669  0.75786821     1.49110
Zn365      Zn  0.45849462  0.30575202  0.79555775     1.49480
O366        O  0.99655266  0.27094049  0.76164574    -1.83590
O367        O  0.47497345  0.20360794  0.69476024    -0.74230
O368        O  0.05384467  0.19674285  0.78735452    -0.74050
O369        O  0.06712306  0.29994280  0.70201607    -0.73560
O370        O  0.45419653  0.17517499  0.74877879    -0.74240
O371        O  0.01345868  0.28591226  0.66747356    -0.73840
O372        O  0.08617339  0.24996555  0.77011336    -0.74420
O373        O  0.49182063  0.35236657  0.80821342    -0.73810
O374        O  0.45605658  0.22651692  0.84419669    -0.74570
O375        O  0.05698889  0.34279330  0.79084461    -0.73960
O376        O  0.43805016  0.29042939  0.84726947    -0.74430
O377        O  0.40960548  0.32065665  0.76678988    -0.74340
O378        O  0.42064641  0.28235955  0.71215676    -0.74130
C379        C  0.46293776  0.17335693  0.71151786     0.77660
C380        C  0.08595489  0.21372291  0.77775568     0.78150
C381        C  0.04921659  0.29701862  0.66924114     0.77110
C382        C  0.03137853  0.36716206  0.80637765     0.77490
C383        C  0.44012209  0.25733031  0.86273612     0.78630
C384        C  0.39825708  0.30586943  0.73358613     0.77680
C385        C  0.20944329  0.38706677  0.93542880     0.03660
C386        C  0.21425084  0.38803450  0.89327979    -0.12490
C387        C  0.21334795  0.42534291  0.87567843     0.01160
C388        C  0.21224767  0.45962067  0.90043563    -0.11020
C389        C  0.19494317  0.45829968  0.93806319     0.03650
C390        C  0.20045197  0.42310610  0.95735051    -0.10440
H391        H  0.21882674  0.36098647  0.87503794     0.09250
H392        H  0.21464230  0.48786625  0.88689172     0.06780
H393        H  0.19136069  0.42312696  0.98831985     0.06620
C394        C  0.54067149  0.39699186  0.82949883     0.03660
C395        C  0.51236846  0.42190468  0.84999853    -0.12490
C396        C  0.52087350  0.46214933  0.85646114     0.01160
C397        C  0.06019667  0.48492919  0.83563161    -0.11020
C398        C  0.09175779  0.45835853  0.83566138     0.03650
C399        C  0.08331587  0.41943760  0.82088227    -0.10440
H400        H  0.48536647  0.41005926  0.86203759     0.09250
H401        H  0.06641979  0.51615225  0.84108780     0.06780
H402        H  0.10717168  0.39853635  0.81372500     0.06620
Zn403      Zn  0.01518553  0.49785210  0.51278075     1.49720
Zn404      Zn  0.44366662  0.03726116  0.50686392     1.49360
Zn405      Zn  0.02866110  0.07601885  0.51906532     1.49110
Zn406      Zn  0.02093164  0.02886589  0.94203548     1.49480
O407        O  0.99413366  0.04215472  0.48648856    -1.83590
O408        O  0.46416194  0.47337671  0.54504372    -0.74230
O409        O  0.44350441  0.07199712  0.55932914    -0.74050
O410        O  0.05981727  0.04244465  0.55421595    -0.73560
O411        O  0.41928239  0.49100179  0.50247507    -0.74240
O412        O  0.05989415  0.50800300  0.55376244    -0.73840
O413        O  0.99633825  0.10920966  0.55842641    -0.74420
O414        O  0.07174961  0.06551032  0.93727943    -0.73810
O415        O  0.41599419  0.03722713  0.93817074    -0.74570
O416        O  0.06717941  0.10927918  0.48907058    -0.73960
O417        O  0.45614723  0.08147260  0.91574606    -0.74430
O418        O  0.00546046  0.52552086  0.89262408    -0.74340
O419        O  0.03049223  0.47496277  0.92428714    -0.74130
C420        C  0.43159329  0.46678216  0.52717996     0.77660
C421        C  0.46850164  0.09372141  0.57885535     0.78150
C422        C  0.06861488  0.53946471  0.57411486     0.77110
C423        C  0.08391323  0.09525180  0.95933630     0.77490
C424        C  0.42899933  0.05613697  0.90932468     0.78630
C425        C  0.01816193  0.49031738  0.89264634     0.77680
C426        C  0.12463470  0.19261257  0.77215075     0.03660
C427        C  0.13049313  0.15081530  0.77300894    -0.12490
C428        C  0.16900966  0.13509673  0.76394998     0.01160
C429        C  0.19864647  0.16167524  0.75343834    -0.11020
C430        C  0.19558013  0.19965741  0.77117329     0.03650
C431        C  0.15835071  0.21631709  0.76546012    -0.10440
H432        H  0.10652331  0.13163962  0.78085024     0.09250
H433        H  0.22780075  0.15053586  0.74481909     0.06780
H434        H  0.15608840  0.24832857  0.76782970     0.06620
C435        C  0.10461360  0.14009188  0.43886682     0.03660
C436        C  0.14153897  0.11101904  0.91314232    -0.12490
C437        C  0.17892117  0.12853705  0.90777518     0.01160
C438        C  0.19794481  0.14493072  0.94065966    -0.11020
C439        C  0.16549264  0.17645157  0.45412958     0.03650
C440        C  0.12987492  0.15951442  0.46693350    -0.10440
H441        H  0.12704573  0.09629529  0.88808726     0.09250
H442        H  0.22773885  0.15587463  0.93658194     0.06780
H443        H  0.12173279  0.16184823  0.49818476     0.06620
Zn444      Zn  0.29869397  0.27900576  0.54387950     1.49720
Zn445      Zn  0.20975550  0.25549264  0.54818586     1.49360
Zn446      Zn  0.23402280  0.34559759  0.51795502     1.49110
Zn447      Zn  0.24726876  0.26961590  0.97579519     1.49480
O448        O  0.24854460  0.28768039  0.51996946    -1.83590
O449        O  0.29656747  0.22665338  0.57389703    -0.74230
O450        O  0.17303783  0.29234216  0.57700388    -0.74050
O451        O  0.28684222  0.37646135  0.52770712    -0.73560
O452        O  0.23295332  0.21503867  0.58367556    -0.74240
O453        O  0.31521730  0.33356216  0.56624864    -0.73840
O454        O  0.18339761  0.35391249  0.55790612    -0.74420
O455        O  0.23084594  0.31916169  0.94501653    -0.73810
O456        O  0.17711858  0.21987410  0.51161158    -0.74570
O457        O  0.20415607  0.35491846  0.99567506    -0.73960
O458        O  0.21243062  0.22059148  0.96934501    -0.74430
O459        O  0.30365426  0.25607556  0.95366887    -0.74340
O460        O  0.33574737  0.24975323  0.00976900    -0.74130
C461        C  0.26891203  0.20444138  0.58600153     0.77660
C462        C  0.16362182  0.32890042  0.57805948     0.78150
C463        C  0.31752620  0.36406634  0.54509763     0.77110
C464        C  0.21408633  0.35105256  0.95907264     0.77490
C465        C  0.18945368  0.19950903  0.99024323     0.78630
C466        C  0.33523170  0.24818599  0.97203029     0.77680
C467        C  0.31805269  0.37229464  0.69748612     0.03660
C468        C  0.34183035  0.35462772  0.72638176    -0.12490
C469        C  0.35960831  0.31720790  0.71743502     0.01160
C470        C  0.34802743  0.29609677  0.68304754    -0.11020
C471        C  0.34126522  0.31897694  0.65095638     0.03650
C472        C  0.31851374  0.35413508  0.65878408    -0.10440
H473        H  0.34874072  0.37080427  0.75398456     0.09250
H474        H  0.36066279  0.26676287  0.67719065     0.06780
H475        H  0.30833594  0.37095906  0.63445571     0.06620
C476        C  0.39753529  0.42301293  0.99985526     0.03660
C477        C  0.43967293  0.39563428  0.53451814    -0.12490
C478        C  0.42646377  0.35788952  0.54148717     0.01160
C479        C  0.38742670  0.34954179  0.53195943    -0.11020
C480        C  0.34921105  0.37464540  0.02254927     0.03650
C481        C  0.36355887  0.41437206  0.02375872    -0.10440
H482        H  0.47089747  0.40116620  0.53704459     0.09250
H483        H  0.37831958  0.31931832  0.53213590     0.06780
H484        H  0.35024515  0.43690512  0.04378744     0.06620
C485        C  0.40121112  0.35580263  0.63479362    -0.25790
C486        C  0.37802894  0.32216221  0.62668399    -0.13860
C487        C  0.39536143  0.29069641  0.60215296     0.36770
C488        C  0.42966672  0.29851130  0.57964300    -0.25230
C489        C  0.44120734  0.33821096  0.57705349    -0.14470
C490        C  0.43479385  0.36235047  0.61196913     0.37850
N491        N  0.45622843  0.39807171  0.61920453    -0.88720
H492        H  0.39291050  0.37766050  0.65821563     0.18970
H493        H  0.43926277  0.27678471  0.55659432     0.18960
N494        N  0.37777824  0.25242656  0.59666470    -0.87750
H495        H  0.46627656  0.39825924  0.64838193     0.36340
H496        H  0.43658861  0.42202964  0.61774000     0.41440
H497        H  0.35165675  0.25093852  0.61315754     0.41060
H498        H  0.39739255  0.23172474  0.60763458     0.35940
C499        C  0.18087572  0.21440763  0.84263862    -0.25790
C500        C  0.20944833  0.20201426  0.81367029    -0.13860
C501        C  0.23704599  0.17315759  0.82528655     0.36770
C502        C  0.22533415  0.14675623  0.85390553    -0.25230
C503        C  0.18800992  0.15116582  0.87277818    -0.14470
C504        C  0.16700054  0.18709110  0.86894497     0.37850
N505        N  0.13200878  0.19624357  0.89234480    -0.88720
H506        H  0.16312738  0.24079149  0.83901755     0.18970
H507        H  0.24520493  0.12308151  0.86149103     0.18960
N508        N  0.27508139  0.16834706  0.80610517    -0.87750
H509        H  0.10874918  0.20089279  0.87298399     0.36340
H510        H  0.13664445  0.22266686  0.90912042     0.41440
H511        H  0.27854229  0.18922894  0.78458520     0.41060
H512        H  0.27680061  0.14025911  0.79163708     0.35940
C513        C  0.13189689  0.50239221  0.88143084    -0.25790
C514        C  0.11485872  0.46482232  0.87284962    -0.13860
C515        C  0.10959762  0.43990701  0.90524706     0.36790
C516        C  0.12515322  0.45146274  0.94235017    -0.25230
C517        C  0.15571785  0.47910233  0.94313540    -0.14470
C518        C  0.14949256  0.51096278  0.91844670     0.37850
N519        N  0.16721325  0.54879683  0.92682555    -0.88720
H520        H  0.13176221  0.52473562  0.85959784     0.18970
H521        H  0.12228684  0.43134446  0.96616105     0.18960
N522        N  0.08857820  0.40341200  0.90114835    -0.87750
H523        H  0.18888186  0.55300253  0.90505832     0.36340
H524        H  0.18153071  0.54881162  0.95412313     0.41440
H525        H  0.06525790  0.40435244  0.92190062     0.41060
H526        H  0.10785191  0.38050672  0.90807846     0.35940
C527        C  0.35012979  0.11474294  0.64231007    -0.25790
C528        C  0.34627096  0.08996441  0.60764978    -0.13860
C529        C  0.36000612  0.05012972  0.60862294     0.36770
C530        C  0.37911501  0.03778788  0.64265052    -0.25230
C531        C  0.39074135  0.06610527  0.67246046    -0.14470
C532        C  0.36869730  0.10178855  0.67560995     0.37850
N533        N  0.36743334  0.12654438  0.71147651    -0.88720
H534        H  0.33625113  0.14372222  0.64513177     0.18970
H535        H  0.39262361  0.00852240  0.64138343     0.18960
N536        N  0.35650299  0.02211526  0.57525715    -0.87750
H537        H  0.33785888  0.12981942  0.72068533     0.36340
H538        H  0.37774421  0.15459070  0.70518912     0.41440
H539        H  0.34453757  0.03529079  0.55075939     0.41060
H540        H  0.33725545  0.99991325  0.58350749     0.35940
C541        C  0.39769670  0.16196094  0.89066870    -0.25790
C542        C  0.43384153  0.16872139  0.91003861    -0.13860
C543        C  0.46924645  0.15694447  0.88896296     0.36770
C544        C  0.46725527  0.13860192  0.85064859    -0.25230
C545        C  0.43067201  0.12798857  0.83388145    -0.14470
C546        C  0.39611539  0.14448329  0.85238628     0.37850
N547        N  0.35885981  0.14306294  0.83282128    -0.88720
H548        H  0.37000356  0.17264584  0.90386896     0.18970
H549        H  0.49438752  0.12719285  0.83657516     0.18960
N550        N  0.50754876  0.16144899  0.90626213    -0.87750
H551        H  0.34893142  0.17222166  0.83066311     0.36340
H552        H  0.33868409  0.12858961  0.85067473     0.41440
H553        H  0.50562553  0.17153075  0.93609085     0.41060
H554        H  0.52334564  0.18199171  0.89041682     0.35940
C555        C  0.01525248  0.47911816  0.62864230    -0.25790
C556        C  0.02350252  0.48902176  0.66913514    -0.13860
C557        C  0.02817400  0.45639260  0.69290247     0.36770
C558        C  0.04587560  0.42203905  0.67530474    -0.25230
C559        C  0.05222390  0.41848758  0.63375560    -0.14470
C560        C  0.03324030  0.44519149  0.61014997     0.37850
N561        N  0.03124211  0.43739719  0.56804400    -0.88720
H562        H  0.00301229  0.50114272  0.61009355     0.18970
H563        H  0.05497358  0.39848164  0.69385699     0.18960
N564        N  0.02227810  0.46082897  0.73508272    -0.87750
H565        H  0.01859208  0.40965320  0.56287027     0.36340
H566        H  0.06013317  0.43499422  0.55662917     0.41440
H567        H  0.04883656  0.45398157  0.74873930     0.41060
H568        H  0.00168445  0.43973369  0.74305948     0.35940
C569        C  0.14511705  0.83738000  0.12100190     0.03660
C570        C  0.12561151  0.80783074  0.14237383    -0.12490
C571        C  0.08450193  0.81117563  0.14982351     0.01160
C572        C  0.06384587  0.84111920  0.13265446    -0.11020
C573        C  0.08394534  0.87547595  0.12582270     0.03650
C574        C  0.12492883  0.87372160  0.11762748    -0.10440
H575        H  0.14170205  0.78210062  0.15153857     0.09250
H576        H  0.03207081  0.84329892  0.13707689     0.06780
H577        H  0.14024711  0.89960745  0.10816021     0.06620
C578        C  0.13290799  0.49464431  0.14424724     0.03660
C579        C  0.08082634  0.01019757  0.20518820    -0.12490
C580        C  0.04320373  0.01468165  0.18898264     0.01160
C581        C  0.04272430  0.04111409  0.15851443    -0.11020
C582        C  0.09951566  0.51879543  0.08580666     0.03650
C583        C  0.13089863  0.49661399  0.10203161    -0.10440
H584        H  0.08316274  0.00162742  0.23552379     0.09250
H585        H  0.01426500  0.05233326  0.15009540     0.06780
H586        H  0.15316959  0.48220926  0.08271798     0.06620
Zn587      Zn  0.25448312  0.48745949  0.17767692     1.49720
Zn588      Zn  0.26003810  0.55969421  0.24522984     1.49360
Zn589      Zn  0.19361210  0.49435349  0.25175262     1.49110
Zn590      Zn  0.27479429  0.97488849  0.28280167     1.49480
O591        O  0.24875374  0.50332644  0.23468991    -1.83590
O592        O  0.26136926  0.53668362  0.15024285    -0.74230
O593        O  0.21537875  0.58281641  0.27913393    -0.74050
O594        O  0.14998849  0.96992485  0.22783898    -0.73560
O595        O  0.25847268  0.58916497  0.19238177    -0.74240
O596        O  0.18281058  0.99203482  0.17655728    -0.73840
O597        O  0.16326712  0.54818713  0.26111806    -0.74420
O598        O  0.25175083  0.94578287  0.32698205    -0.73810
O599        O  0.31195375  0.56722480  0.27746746    -0.74570
O600        O  0.18829572  0.96453382  0.32630355    -0.73960
O601        O  0.32377850  0.50698587  0.29767491    -0.74430
O602        O  0.29995448  0.93368543  0.24642586    -0.74340
O603        O  0.27193363  0.93788980  0.18737980    -0.74130
C604        C  0.25886004  0.57400658  0.15684164     0.77660
C605        C  0.17930804  0.58150007  0.26901744     0.78150
C606        C  0.15023623  0.98609733  0.19422443     0.77110
C607        C  0.21764214  0.94763001  0.34291973     0.77490
C608        C  0.33216954  0.54350462  0.29784052     0.78630
C609        C  0.29534179  0.92041835  0.21078004     0.77680
C610        C  0.37461803  0.74500009  0.45341248     0.03660
C611        C  0.40372358  0.72476903  0.47483884    -0.12490
C612        C  0.43886092  0.71217271  0.45499036     0.01160
C613        C  0.45220075  0.73816300  0.42720537    -0.11020
C614        C  0.42389834  0.75046010  0.40084822     0.03650
C615        C  0.38443256  0.75585604  0.41453403    -0.10440
H616        H  0.39562423  0.71099958  0.50203726     0.09250
H617        H  0.48262032  0.73630932  0.41686704     0.06780
H618        H  0.36217721  0.76753881  0.39544545     0.06620
C619        C  0.36812872  0.55721853  0.31953767     0.03660
C620        C  0.38625359  0.59343066  0.31097209    -0.12490
C621        C  0.42356523  0.60188039  0.32734194     0.01160
C622        C  0.44597227  0.56831295  0.33428322    -0.11020
C623        C  0.42627008  0.54331124  0.35925598     0.03650
C624        C  0.36882166  0.04350840  0.37283590    -0.10440
H625        H  0.36949794  0.61647311  0.29758068     0.09250
H626        H  0.47753139  0.57181075  0.33789594     0.06780
H627        H  0.34911667  0.02649828  0.39068970     0.06620
C628        C  0.28280174  0.66086235  0.09523511     0.03660
C629        C  0.25770896  0.64033282  0.12146584    -0.12490
C630        C  0.26147811  0.59839008  0.12123837     0.01160
C631        C  0.28322319  0.58040138  0.08936613    -0.11020
C632        C  0.31920867  0.59855099  0.08344478     0.03650
C633        C  0.31612694  0.63966735  0.07866367    -0.10440
H634        H  0.23716601  0.65626743  0.14161097     0.09250
H635        H  0.28285567  0.54845393  0.08507373     0.06780
H636        H  0.34032203  0.65496220  0.06501342     0.06620
C637        C  0.96595635  0.64260149  0.18211854     0.03660
C638        C  0.44716131  0.60360252  0.19749380    -0.12490
C639        C  0.43544339  0.57111064  0.17291617     0.01160
C640        C  0.45070291  0.56945141  0.13395087    -0.11020
C641        C  0.96869577  0.60424563  0.11841289     0.03650
C642        C  0.97417576  0.64043430  0.14044711    -0.10440
H643        H  0.44082591  0.60344242  0.22909953     0.09250
H644        H  0.44899490  0.54201771  0.11586283     0.06780
H645        H  0.98415606  0.66614980  0.12552953     0.06620
Zn646      Zn  0.46961047  0.76287196  0.21256040     1.49720
Zn647      Zn  0.47825134  0.71216414  0.28432124     1.49360
Zn648      Zn  0.05553546  0.78244693  0.27051912     1.49110
Zn649      Zn  0.45296211  0.80592593  0.29480664     1.49480
O650        O  0.00023943  0.76815412  0.26734417    -1.83590
O651        O  0.46841202  0.70784311  0.18986176    -0.74230
O652        O  0.04515928  0.68550416  0.28164044    -0.74050
O653        O  0.07991483  0.78923984  0.21559194    -0.73560
O654        O  0.44957322  0.67680215  0.24311915    -0.74240
O655        O  0.02590910  0.78824805  0.17900303    -0.73840
O656        O  0.08568736  0.73633224  0.28996968    -0.74420
O657        O  0.48571644  0.85270969  0.31010884    -0.73810
O658        O  0.45221646  0.72235358  0.34037761    -0.74570
O659        O  0.06199863  0.83588343  0.30283844    -0.73960
O660        O  0.43351607  0.78628020  0.34458636    -0.74430
O661        O  0.40431406  0.82304584  0.26698520    -0.74340
O662        O  0.41580240  0.78851301  0.21006409    -0.74130
C663        C  0.45749686  0.67660464  0.20576415     0.77660
C664        C  0.07983627  0.69960031  0.28140815     0.78150
C665        C  0.06300074  0.79324879  0.18257250     0.77110
C666        C  0.03575330  0.86184416  0.31421132     0.77490
C667        C  0.43624002  0.75281501  0.35929285     0.78630
C668        C  0.39352896  0.81119683  0.23256708     0.77680
C669        C  0.21203898  0.90045460  0.44457789     0.03660
C670        C  0.21766686  0.90238150  0.40267589    -0.12490
C671        C  0.21507864  0.93975607  0.38561790     0.01160
C672        C  0.21119749  0.97355766  0.41082702    -0.11020
C673        C  0.19260533  0.97035634  0.44772749     0.03650
C674        C  0.20044376  0.93543343  0.46689008    -0.10440
H675        H  0.22401103  0.87587749  0.38410282     0.09250
H676        H  0.21205176  0.00206951  0.39769224     0.06780
H677        H  0.19063321  0.93406179  0.49753597     0.06620
C678        C  0.53577809  0.89752096  0.32866505     0.03660
C679        C  0.50997013  0.92186888  0.35312280    -0.12490
C680        C  0.51965338  0.96186311  0.36027277     0.01160
C681        C  0.05961900  0.98161765  0.33896401    -0.11020
C682        C  0.09202529  0.95644424  0.34250718     0.03650
C683        C  0.08590192  0.91633390  0.32969444    -0.10440
H684        H  0.48431653  0.90971534  0.36749120     0.09250
H685        H  0.06419367  0.01326789  0.34290388     0.06780
H686        H  0.11075190  0.89606488  0.32516969     0.06620
Zn687      Zn  0.00479988  0.99676855  0.02791656     1.49720
Zn688      Zn  0.43404382  0.54549043  0.99876609     1.49360
Zn689      Zn  0.03839507  0.58381822  0.01200931     1.49110
Zn690      Zn  0.02546987  0.53747944  0.42974361     1.49480
O691        O  0.00371020  0.54555058  0.98425719    -1.83590
O692        O  0.48692420  0.95489313  0.00713672    -0.74230
O693        O  0.43389766  0.58059860  0.05121866    -0.74050
O694        O  0.08559687  0.55555558  0.03183457    -0.73560
O695        O  0.42846694  0.98474258  0.01198257    -0.74240
O696        O  0.05025699  0.00667083  0.06727723    -0.73840
O697        O  0.00878888  0.60497645  0.06077204    -0.74420
O698        O  0.07235617  0.57864840  0.42068164    -0.73810
O699        O  0.42496282  0.54920439  0.43156275    -0.74570
O700        O  0.06533044  0.62687817  0.98155273    -0.73960
O701        O  0.48190815  0.53595875  0.39941714    -0.74430
O702        O  0.00136484  0.02223165  0.39366207    -0.74340
O703        O  0.02589454  0.97227518  0.42634317    -0.74130
C704        C  0.44980641  0.95377856  0.01432670     0.77660
C705        C  0.45992029  0.60071319  0.07105345     0.78150
C706        C  0.05750986  0.03856761  0.08757139     0.77110
C707        C  0.08572810  0.60665173  0.44420248     0.77490
C708        C  0.44450015  0.54076726  0.39915426     0.78630
C709        C  0.01504333  0.98734103  0.39413041     0.77680
C710        C  0.11414146  0.67587950  0.26478968     0.03660
C711        C  0.12355983  0.63573480  0.27266504    -0.12490
C712        C  0.16064514  0.61962181  0.25834388     0.01160
C713        C  0.18592459  0.64453298  0.23761830    -0.11020
C714        C  0.18136234  0.68525127  0.24467518     0.03650
C715        C  0.14195798  0.69732480  0.24309073    -0.10440
H716        H  0.10415659  0.61879819  0.29090691     0.09250
H717        H  0.21481352  0.63390352  0.22828229     0.06780
H718        H  0.13618471  0.72815716  0.23776255     0.06620
C719        C  0.10304013  0.65476373  0.92901585     0.03660
C720        C  0.13637395  0.63245062  0.39430167    -0.12490
C721        C  0.17191926  0.65307638  0.38769347     0.01160
C722        C  0.19159679  0.67046930  0.41943001    -0.11020
C723        C  0.15941271  0.69934157  0.94220574     0.03650
C724        C  0.12622473  0.67843256  0.95598471    -0.10440
H725        H  0.12128645  0.61791981  0.36952754     0.09250
H726        H  0.21976606  0.68425804  0.41348505     0.06780
H727        H  0.11863207  0.68051207  0.98736699     0.06620
Zn728      Zn  0.30047435  0.76542827  0.02924453     1.49720
Zn729      Zn  0.21411340  0.75611557  0.04541601     1.49360
Zn730      Zn  0.25038215  0.84646990  0.03826081     1.49110
Zn731      Zn  0.24987352  0.78023067  0.47504602     1.49480
O732        O  0.25138249  0.79059741  0.01931847    -1.83590
O733        O  0.30153969  0.72212598  0.06885375    -0.74230
O734        O  0.18191613  0.79025393  0.08280256    -0.74050
O735        O  0.30877443  0.86790988  0.04254905    -0.73560
O736        O  0.23775458  0.71054522  0.07519566    -0.74240
O737        O  0.33851845  0.80954326  0.03138422    -0.73840
O738        O  0.20555714  0.85200584  0.08379121    -0.74420
O739        O  0.23357968  0.83248608  0.45008051    -0.73810
O740        O  0.17962005  0.72889742  0.00455710    -0.74570
O741        O  0.21150606  0.86645721  0.50424113    -0.73960
O742        O  0.21358704  0.73454905  0.46349820    -0.74430
O743        O  0.30639228  0.76729336  0.45364178    -0.74340
O744        O  0.33227305  0.74756730  0.50906096    -0.74130
C745        C  0.27352411  0.70075415  0.08089722     0.77660
C746        C  0.18042514  0.82636438  0.09557682     0.78150
C747        C  0.34000980  0.84728459  0.03367622     0.77110
C748        C  0.21850418  0.86400966  0.46686843     0.77490
C749        C  0.18733177  0.71323968  0.47969570     0.78630
C750        C  0.33536310  0.75325826  0.47238498     0.77680
C751        C  0.31657492  0.88262362  0.19855508     0.03660
C752        C  0.33923618  0.86273266  0.22682887    -0.12490
C753        C  0.35577256  0.82514363  0.21636801     0.01160
C754        C  0.34398204  0.80625799  0.18102616    -0.11020
C755        C  0.33894281  0.83084262  0.14978981     0.03650
C756        C  0.31808990  0.86694434  0.15876588    -0.10440
H757        H  0.34586262  0.87709174  0.25543181     0.09250
H758        H  0.35509858  0.77645698  0.17469657     0.06780
H759        H  0.30928941  0.88527407  0.13498058     0.06620
C760        C  0.42293349  0.91091821  0.52553984     0.03660
C761        C  0.46001278  0.88325743  0.02813423    -0.12490
C762        C  0.44637506  0.84590485  0.03630954     0.01160
C763        C  0.41099552  0.83688873  0.01769384    -0.11020
C764        C  0.36705247  0.86505169  0.53487433     0.03650
C765        C  0.38127450  0.90484195  0.53313060    -0.10440
H766        H  0.49129019  0.88842447  0.02985212     0.09250
H767        H  0.40466856  0.80577955  0.01240928     0.06780
H768        H  0.36115495  0.92980471  0.53781151     0.06620
C769        C  0.39944092  0.86430008  0.12812339    -0.25790
C770        C  0.37504674  0.83101338  0.12388818    -0.13860
C771        C  0.39161524  0.79607932  0.10427252     0.36770
C772        C  0.42876650  0.79774807  0.08524008    -0.25230
C773        C  0.44530412  0.83492848  0.07887579    -0.14470
C774        C  0.43532103  0.86567007  0.10740862     0.37850
N775        N  0.45937079  0.89995570  0.11258641    -0.88720
H776        H  0.39095316  0.88945940  0.14781233     0.18970
H777        H  0.43849933  0.77228324  0.06653209     0.18960
N778        N  0.37051347  0.75960210  0.10008782    -0.87750
H779        H  0.46696036  0.90281438  0.14255022     0.36340
H780        H  0.44233907  0.92484408  0.10656769     0.41440
H781        H  0.34182891  0.76302548  0.11147890     0.41060
H782        H  0.38519803  0.73872720  0.11646339     0.35940
C783        C  0.18172032  0.72597035  0.30761930    -0.25790
C784        C  0.20449417  0.70287659  0.27952437    -0.13860
C785        C  0.23188391  0.67737115  0.29703662     0.36770
C786        C  0.21939959  0.65843354  0.33110077    -0.25230
C787        C  0.18331985  0.66998771  0.34995024    -0.14470
C788        C  0.16706245  0.70728407  0.34103963     0.37850
N789        N  0.13599295  0.72560299  0.36551217    -0.88720
H790        H  0.16709695  0.75260759  0.29862193     0.18970
H791        H  0.23755786  0.63533495  0.34280294     0.18960
N792        N  0.26934914  0.66733730  0.27838712    -0.87750
H793        H  0.12717311  0.75244266  0.35425931     0.36340
H794        H  0.14766089  0.73296113  0.39343532     0.41440
H795        H  0.27241734  0.68225616  0.25215268     0.41060
H796        H  0.26984852  0.63706171  0.27047920     0.35940
C797        C  0.12707510  0.00563738  0.38767141    -0.25790
C798        C  0.11327880  0.96648066  0.38025556    -0.13860
C799        C  0.10916671  0.94272200  0.41366370     0.36790
C800        C  0.12340698  0.95683050  0.45058003    -0.25230
C801        C  0.15137999  0.98713780  0.45089486    -0.14470
C802        C  0.14279306  0.01728989  0.42484284     0.37850
N803        N  0.15690797  0.05684842  0.43211027    -0.88720
H804        H  0.12604491  0.02688061  0.36478238     0.18970
H805        H  0.12182039  0.93751565  0.47516452     0.18960
N806        N  0.09052299  0.90487329  0.41077494    -0.87750
H807        H  0.17819484  0.06248545  0.41039303     0.36340
H808        H  0.17084491  0.05922431  0.45962012     0.41440
H809        H  0.06687570  0.90523301  0.43112966     0.41060
H810        H  0.11102916  0.88359570  0.41902248     0.35940
C811        C  0.34962327  0.60724227  0.14921698    -0.25790
C812        C  0.34796947  0.58459605  0.11286927    -0.13860
C813        C  0.36119900  0.54436343  0.11272076     0.36770
C814        C  0.38072664  0.53101797  0.14627714    -0.25230
C815        C  0.39296295  0.55924492  0.17578181    -0.14470
C816        C  0.36727043  0.59197764  0.18212560     0.37850
N817        N  0.36454272  0.61343555  0.21986014    -0.88720
H818        H  0.33458479  0.63559720  0.15332216     0.18970
H819        H  0.39506701  0.50214820  0.14390831     0.18960
N820        N  0.35665470  0.51700419  0.07908969    -0.87750
H821        H  0.33460951  0.61580327  0.22777480     0.36340
H822        H  0.37439911  0.64225245  0.21640127     0.41440
H823        H  0.34492015  0.53085740  0.05489519     0.41060
H824        H  0.33666030  0.49547248  0.08735677     0.35940
C825        C  0.40291523  0.65387132  0.42816516    -0.25790
C826        C  0.43982356  0.67055334  0.43720048    -0.13860
C827        C  0.47234366  0.65841100  0.41237499     0.36770
C828        C  0.46527425  0.64196467  0.37419827    -0.25230
C829        C  0.42682240  0.63134374  0.36201507    -0.14470
C830        C  0.39551967  0.63669038  0.39047784     0.37850
N831        N  0.35593157  0.62473106  0.38183892    -0.88720
H832        H  0.37781703  0.65900221  0.44819788     0.18970
H833        H  0.49041699  0.63574497  0.35444731     0.18960
N834        N  0.51243659  0.66519806  0.42424968    -0.87750
H835        H  0.33734709  0.64961166  0.38553666     0.36340
H836        H  0.34726808  0.60437539  0.40247016     0.41440
H837        H  0.51309872  0.67878199  0.45286117     0.41060
H838        H  0.52565577  0.68425184  0.40470053     0.35940
C839        C  0.01748582  0.96527966  0.13846794    -0.25790
C840        C  0.02335191  0.97558755  0.17927378    -0.13860
C841        C  0.03412101  0.94401553  0.20242796     0.36770
C842        C  0.05727949  0.91335178  0.18449287    -0.25230
C843        C  0.06372808  0.91097223  0.14295261    -0.14470
C844        C  0.04062754  0.93487507  0.11955616     0.37850
N845        N  0.03968598  0.92809285  0.07723049    -0.88720
H846        H  0.00118515  0.98507057  0.12039570     0.18970
H847        H  0.06998251  0.89126164  0.20282244     0.18960
N848        N  0.02762177  0.94673055  0.24451536    -0.87750
H849        H  0.03058125  0.89908224  0.07067020     0.36340
H850        H  0.06852896  0.93045994  0.06606595     0.41440
H851        H  0.05502382  0.94443357  0.25811855     0.41060
H852        H  0.01108647  0.92217289  0.25185410     0.35940
C853        C  0.15622379  0.82996906  0.65039427     0.03660
C854        C  0.14166798  0.79969607  0.67403521    -0.12490
C855        C  0.12051289  0.80978120  0.70947570     0.01160
C856        C  0.11633254  0.84924532  0.72211303    -0.11020
C857        C  0.11709543  0.87661245  0.69303916     0.03650
C858        C  0.14201193  0.86892916  0.65931683    -0.10440
H859        H  0.14509759  0.76878032  0.66429785     0.09250
H860        H  0.09886917  0.85619839  0.74897026     0.06780
H861        H  0.14570135  0.89129830  0.63778560     0.06620
C862        C  0.11879566  0.49872032  0.66552134     0.03660
C863        C  0.07978959  0.99724752  0.67956331    -0.12490
C864        C  0.04342943  0.98600301  0.66337400     0.01160
C865        C  0.03955304  0.98884651  0.62230313    -0.11020
C866        C  0.08375816  0.53594152  0.61522134     0.03650
C867        C  0.11559036  0.51032051  0.62540968    -0.10440
H868        H  0.08201629  0.00164687  0.71145055     0.09250
H869        H  0.01075051  0.98457215  0.60910498     0.06780
H870        H  0.13669603  0.49939180  0.60284707     0.06620
Zn871      Zn  0.24104546  0.48041501  0.69065981     1.49720
Zn872      Zn  0.24059526  0.55196488  0.75567298     1.49360
Zn873      Zn  0.18040001  0.48036513  0.76391497     1.49110
Zn874      Zn  0.27277784  0.97473323  0.77154130     1.49480
O875        O  0.23396727  0.49508275  0.74710710    -1.83590
O876        O  0.26139953  0.52710353  0.66222621    -0.74230
O877        O  0.19210329  0.57397674  0.78479823    -0.74050
O878        O  0.14963306  0.98404221  0.71720617    -0.73560
O879        O  0.24206835  0.57872312  0.70142275    -0.74240
O880        O  0.18545178  0.98542699  0.66138966    -0.73840
O881        O  0.14536951  0.52997720  0.77251481    -0.74420
O882        O  0.24475021  0.95099461  0.81611563    -0.73810
O883        O  0.29042439  0.56416310  0.78939698    -0.74570
O884        O  0.18678962  0.98303993  0.81698253    -0.73960
O885        O  0.31229475  0.50429611  0.80334429    -0.74430
O886        O  0.29632680  0.93097672  0.73830121    -0.74340
O887        O  0.27688022  0.93625114  0.67593146    -0.74130
C888        C  0.25246581  0.56402499  0.66716737     0.77660
C889        C  0.15630543  0.56569547  0.77694966     0.78150
C890        C  0.15201398  0.98606803  0.67926670     0.77110
C891        C  0.21264901  0.96133459  0.83364871     0.77490
C892        C  0.31503122  0.54179330  0.80645673     0.78630
C893        C  0.29626509  0.91799128  0.70225590     0.77680
C894        C  0.37193924  0.75184197  0.93942496     0.03660
C895        C  0.40030335  0.73386674  0.96370027    -0.12490
C896        C  0.43567556  0.71979896  0.94509428     0.01160
C897        C  0.45124064  0.74702925  0.91975669    -0.11020
C898        C  0.42493531  0.75903785  0.89119158     0.03650
C899        C  0.38444251  0.76316528  0.90151232    -0.10440
H900        H  0.39102740  0.72123423  0.99114400     0.09250
H901        H  0.48242443  0.74600622  0.91225515     0.06780
H902        H  0.36329185  0.77289393  0.88018158     0.06620
C903        C  0.34971902  0.55872681  0.82745254     0.03660
C904        C  0.36992191  0.59088120  0.81175370    -0.12490
C905        C  0.40775639  0.60020230  0.82608991     0.01160
C906        C  0.42697299  0.56915674  0.84363595    -0.11020
C907        C  0.40407434  0.55389794  0.87390122     0.03650
C908        C  0.37754543  0.03957685  0.85400172    -0.10440
H909        H  0.35403156  0.61176247  0.79457869     0.09250
H910        H  0.45850281  0.57167967  0.84832467     0.06780
H911        H  0.35583438  0.02721344  0.87357786     0.06620
C912        C  0.27657927  0.65407592  0.60742471     0.03660
C913        C  0.25217969  0.63161402  0.63283454    -0.12490
C914        C  0.25809148  0.58965221  0.63248547     0.01160
C915        C  0.28072749  0.57264671  0.60090317    -0.11020
C916        C  0.31467794  0.59328346  0.59244944     0.03650
C917        C  0.31046500  0.63460474  0.59038189    -0.10440
H918        H  0.23063989  0.64628848  0.65282363     0.09250
H919        H  0.28269681  0.54064292  0.59719809     0.06780
H920        H  0.33430721  0.65136359  0.57792446     0.06620
C921        C  0.96129146  0.65633657  0.65818489     0.03660
C922        C  0.44986910  0.60577955  0.68414242    -0.12490
C923        C  0.44151076  0.57265737  0.65856542     0.01160
C924        C  0.45351756  0.57434339  0.61877403    -0.11020
C925        C  0.95997314  0.62263100  0.59165261     0.03650
C926        C  0.96191589  0.65821760  0.61596530    -0.10440
H927        H  0.44545168  0.60385520  0.71585738     0.09250
H928        H  0.45346503  0.54764825  0.59946534     0.06780
H929        H  0.96334958  0.68652448  0.60252469     0.06620
Zn930      Zn  0.47215934  0.76489613  0.70577217     1.49720
Zn931      Zn  0.47973677  0.71406440  0.77661634     1.49360
Zn932      Zn  0.04392250  0.75875179  0.79583233     1.49110
Zn933      Zn  0.46126624  0.81046386  0.78658611     1.49480
O934        O  0.99523611  0.76144236  0.76848919    -1.83590
O935        O  0.46849895  0.71093598  0.68116768    -0.74230
O936        O  0.01239025  0.66960691  0.77524448    -0.74050
O937        O  0.08623143  0.77833911  0.75974430    -0.73560
O938        O  0.45248201  0.67762673  0.73358413    -0.74240
O939        O  0.05756522  0.78310489  0.70113210    -0.73840
O940        O  0.05731785  0.70305747  0.80956708    -0.74420
O941        O  0.49587668  0.85529528  0.80167824    -0.73810
O942        O  0.45149304  0.72750149  0.83138636    -0.74570
O943        O  0.04299759  0.79529099  0.84483260    -0.73960
O944        O  0.44215214  0.79330109  0.83636816    -0.74430
O945        O  0.41154990  0.82870281  0.76216096    -0.74340
O946        O  0.41873086  0.79083788  0.70674154    -0.74130
C947        C  0.45852043  0.67893147  0.69593743     0.77660
C948        C  0.04731348  0.67258532  0.78858552     0.78150
C949        C  0.08759657  0.78642788  0.72334551     0.77110
C950        C  0.02769190  0.82956592  0.85171907     0.77490
C951        C  0.43952292  0.75969528  0.85040147     0.78630
C952        C  0.39794915  0.81437061  0.72982108     0.77680
C953        C  0.22703446  0.91419040  0.93360148     0.03660
C954        C  0.22182349  0.91605566  0.89179517    -0.12490
C955        C  0.20929127  0.95267617  0.87632372     0.01160
C956        C  0.19860866  0.98404770  0.90369189    -0.11020
C957        C  0.19330891  0.97589401  0.94384973     0.03650
C958        C  0.22238038  0.95002001  0.95660896    -0.10440
H959        H  0.22785465  0.89033646  0.87199624     0.09250
H960        H  0.18908065  0.01227055  0.89329289     0.06780
H961        H  0.22845377  0.95082027  0.98809727     0.06620
C962        C  0.54746987  0.89664855  0.82254340     0.03660
C963        C  0.52373342  0.91845546  0.85121646    -0.12490
C964        C  0.53176153  0.95870775  0.85860277     0.01160
C965        C  0.04662261  0.87638768  0.96695070    -0.11020
C966        C  0.07990668  0.86080478  0.94673402     0.03650
C967        C  0.07235140  0.84116197  0.90976675    -0.10440
H968        H  0.50027226  0.90449978  0.86740246     0.09250
H969        H  0.05022326  0.88650485  0.99770152     0.06780
H970        H  0.09501161  0.82232654  0.89536195     0.06620
Zn971      Zn  0.01268133  0.98882684  0.48384193     1.49720
Zn972      Zn  0.44507526  0.54405316  0.48949316     1.49360
Zn973      Zn  0.02975377  0.58884619  0.51252184     1.49110
Zn974      Zn  0.00337482  0.56853556  0.93318440     1.49480
O975        O  0.00348092  0.54413484  0.48362885    -1.83590
O976        O  0.47908651  0.94957619  0.50862580    -0.74230
O977        O  0.43540692  0.58379987  0.53828270    -0.74050
O978        O  0.05690372  0.57312539  0.56334258    -0.73560
O979        O  0.42370632  0.98260764  0.52230563    -0.74240
O980        O  0.05043306  0.98021043  0.53116271    -0.73840
O981        O  0.98912008  0.63034521  0.52849377    -0.74420
O982        O  0.04919776  0.60765803  0.92056046    -0.73810
O983        O  0.40305841  0.54884309  0.94604233    -0.74570
O984        O  0.07094163  0.61292957  0.47892156    -0.73960
O985        O  0.44744832  0.58653704  0.91981376    -0.74430
O986        O  0.02610875  0.96862696  0.93308265    -0.74340
O987        O  0.01323349  0.94916575  0.99363677    -0.74130
C988        C  0.44255873  0.94992940  0.51898381     0.77660
C989        C  0.45807905  0.60854516  0.55726146     0.78150
C990        C  0.06379117  0.00539517  0.55741373     0.77110
C991        C  0.07041997  0.62895950  0.94425036     0.77490
C992        C  0.41839797  0.56310600  0.91538059     0.78630
C993        C  0.01905913  0.94133790  0.95686966     0.77680
C994        C  0.08002513  0.64955910  0.76847948     0.03660
C995        C  0.09520983  0.61260156  0.78006227    -0.12490
C996        C  0.13149509  0.59826533  0.76262462     0.01160
C997        C  0.15056711  0.62096525  0.73443964    -0.11020
C998        C  0.14283104  0.66153417  0.73585345     0.03650
C999        C  0.10307667  0.67195588  0.74288657    -0.10440
H1000       H  0.08070982  0.59691621  0.80324353     0.09250
H1001       H  0.17888305  0.61093484  0.72230864     0.06780
H1002       H  0.09381266  0.70198883  0.73780202     0.06620
C1003       C  0.12009142  0.63224811  0.43335150     0.03660
C1004       C  0.11331375  0.65442613  0.88793083    -0.12490
C1005       C  0.14714139  0.67483857  0.87521881     0.01160
C1006       C  0.17028604  0.69498344  0.90245036    -0.11020
C1007       C  0.17133796  0.67976845  0.45481470     0.03650
C1008       C  0.13650440  0.65890008  0.46296236    -0.10440
H1009       H  0.09556866  0.63827769  0.86622227     0.09250
H1010       H  0.19627428  0.70966604  0.89136457     0.06780
H1011       H  0.12229107  0.66367776  0.49185854     0.06620
Zn1012     Zn  0.29683189  0.76746709  0.55202453     1.49720
Zn1013     Zn  0.20793860  0.74993115  0.55787378     1.49360
Zn1014     Zn  0.23958550  0.83987231  0.54724972     1.49110
Zn1015     Zn  0.25002150  0.78997126  0.96120144     1.49480
O1016       O  0.24708689  0.78373995  0.53256816    -1.83590
O1017       O  0.29488189  0.71847105  0.58657562    -0.74230
O1018       O  0.17723394  0.78411926  0.59855603    -0.74050
O1019       O  0.29450871  0.86755721  0.54205938    -0.73560
O1020       O  0.23142084  0.70391072  0.58729556    -0.74240
O1021       O  0.32705305  0.81738220  0.56570226    -0.73840
O1022       O  0.20466281  0.84426315  0.59944715    -0.74420
O1023       O  0.23620939  0.84311253  0.93704955    -0.73810
O1024       O  0.17631111  0.71964593  0.51585331    -0.74570
O1025       O  0.23494333  0.88025501  0.99314250    -0.73960
O1026       O  0.20963461  0.74753188  0.94912438    -0.74430
O1027       O  0.30606122  0.77905419  0.93878832    -0.74340
O1028       O  0.31939789  0.73474976  0.98165886    -0.74130
C1029       C  0.26696974  0.69502983  0.59505286     0.77660
C1030       C  0.18050444  0.81932819  0.61391936     0.78150
C1031       C  0.32724354  0.85060713  0.54913649     0.77110
C1032       C  0.23313127  0.87703175  0.95527353     0.77490
C1033       C  0.18392624  0.72673683  0.96693734     0.78630
C1034       C  0.33020926  0.75474153  0.95294809     0.77680
C1035       C  0.31840074  0.87987640  0.69339261     0.03660
C1036       C  0.34191428  0.86364149  0.72342827    -0.12490
C1037       C  0.35795966  0.82517838  0.71692800     0.01160
C1038       C  0.34386832  0.80221669  0.68496965    -0.11020
C1039       C  0.34054339  0.82285223  0.65084810     0.03650
C1040       C  0.31970307  0.85970148  0.65547640    -0.10440
H1041       H  0.34986857  0.88142705  0.74974520     0.09250
H1042       H  0.35412814  0.77175556  0.68214823     0.06780
H1043       H  0.31055394  0.87496894  0.62971519     0.06620
C1044       C  0.43264080  0.91447317  0.02299319     0.03660
C1045       C  0.44842500  0.87756662  0.52577559    -0.12490
C1046       C  0.43376053  0.84112320  0.53569656     0.01160
C1047       C  0.39459657  0.83459350  0.52537418    -0.11020
C1048       C  0.38003289  0.86459616  0.02506853     0.03650
C1049       C  0.39116461  0.90539495  0.02554153    -0.10440
H1050       H  0.48003288  0.88083962  0.52468345     0.09250
H1051       H  0.38469523  0.80426137  0.52371180     0.06780
H1052       H  0.36891063  0.92866920  0.02684762     0.06620
C1053       C  0.40302385  0.85433230  0.63095253    -0.25790
C1054       C  0.37850299  0.82115608  0.62744873    -0.13860
C1055       C  0.39439188  0.78630935  0.60687149     0.36770
C1056       C  0.42894472  0.78938324  0.58344561    -0.25230
C1057       C  0.44305475  0.82729882  0.57600445    -0.14470
C1058       C  0.43685938  0.85640894  0.60717775     0.37850
N1059       N  0.46055755  0.89108412  0.61042019    -0.88720
H1060       H  0.39548344  0.87925474  0.65132289     0.18970
H1061       H  0.43710626  0.76463462  0.56305905     0.18960
N1062       N  0.37466730  0.74896915  0.60540716    -0.87750
H1063       H  0.47098427  0.89363441  0.63947932     0.36340
H1064       H  0.44237751  0.91577563  0.60675307     0.41440
H1065       H  0.34772101  0.75107273  0.62058841     0.41060
H1066       H  0.39241923  0.72892899  0.61984851     0.35940
C1067       C  0.15931952  0.72158571  0.77656861    -0.25790
C1068       C  0.17429068  0.68816973  0.75440491    -0.13860
C1069       C  0.20218313  0.66790410  0.77699296     0.36770
C1070       C  0.19069842  0.65959065  0.81598804    -0.25230
C1071       C  0.15821724  0.68065637  0.83363023    -0.14470
C1072       C  0.14828119  0.71672459  0.81657950     0.37850
N1073       N  0.13097505  0.74876973  0.84058036    -0.88720
H1074       H  0.15144019  0.74796492  0.76188411     0.18970
H1075       H  0.20784575  0.63928275  0.83280159     0.18960
N1076       N  0.24004121  0.65546390  0.76095412    -0.87750
H1077       H  0.10534011  0.75783972  0.82703863     0.36340
H1078       H  0.15061398  0.77243284  0.84083715     0.41440
H1079       H  0.24197730  0.66210682  0.73095214     0.41060
H1080       H  0.24231608  0.62492905  0.76215080     0.35940
C1081       C  0.10808874  0.92039682  0.91929135    -0.25790
C1082       C  0.11098596  0.89149331  0.94781500    -0.13860
C1083       C  0.13090211  0.90132330  0.98344925     0.36790
C1084       C  0.14907843  0.93850367  0.98840025    -0.25230
C1085       C  0.15229012  0.96342024  0.95605639    -0.14470
C1086       C  0.12426130  0.95766461  0.92582512     0.37850
N1087       N  0.11250863  0.98872741  0.90094541    -0.88720
H1088       H  0.08943650  0.91580861  0.89370229     0.18970
H1089       H  0.16668307  0.94465370  0.01454711     0.18960
N1090       N  0.13459755  0.87274570  0.01327184    -0.87750
H1091       H  0.12253761  0.98149742  0.87193598     0.36340
H1092       H  0.12496665  0.01555956  0.91075146     0.41440
H1093       H  0.10683822  0.86845589  0.02613846     0.41060
H1094       H  0.15255130  0.88378285  0.03614099     0.35940
C1095       C  0.34992263  0.59321366  0.65508466    -0.25790
C1096       C  0.34781367  0.57804248  0.61540580    -0.13860
C1097       C  0.36631452  0.54069183  0.60584179     0.36770
C1098       C  0.39211499  0.52478532  0.63361218    -0.25230
C1099       C  0.40444821  0.54988256  0.66584427    -0.14470
C1100       C  0.37415140  0.57474787  0.68161366     0.37850
N1101       N  0.37201748  0.58577763  0.72293977    -0.88720
H1102       H  0.33061077  0.61719030  0.66627387     0.18970
H1103       H  0.40965033  0.49873425  0.62459941     0.18960
N1104       N  0.35978006  0.51865172  0.56905302    -0.87750
H1105       H  0.34360456  0.57866038  0.73256134     0.36340
H1106       H  0.37467021  0.61656118  0.72635066     0.41440
H1107       H  0.34310230  0.53492039  0.54971282     0.41060
H1108       H  0.34300346  0.49419587  0.57607074     0.35940
C1109       C  0.39480656  0.66482846  0.91686412    -0.25790
C1110       C  0.43300589  0.67985657  0.92305424    -0.13860
C1111       C  0.46307807  0.66727680  0.89505282     0.36770
C1112       C  0.45262796  0.64838377  0.85873177    -0.25230
C1113       C  0.41325274  0.63742441  0.85095847    -0.14470
C1114       C  0.38392577  0.64795392  0.88021009     0.37850
N1115       N  0.34289094  0.64001068  0.87388234    -0.88720
H1116       H  0.37137024  0.67049264  0.93872804     0.18970
H1117       H  0.47601684  0.63849043  0.83804029     0.18960
N1118       N  0.50429955  0.67299187  0.90292896    -0.87750
H1119       H  0.32721110  0.66683204  0.87720303     0.36340
H1120       H  0.33292976  0.62174669  0.89592532     0.41440
H1121       H  0.50824809  0.68579681  0.93151528     0.41060
H1122       H  0.51584829  0.69196973  0.88231240     0.35940
C1123       C  0.01956033  0.91994939  0.65974299    -0.25790
C1124       C  0.02044462  0.95501324  0.68398773    -0.13860
C1125       C  0.03315582  0.94820668  0.72269053     0.36770
C1126       C  0.06693484  0.92375585  0.72563912    -0.25230
C1127       C  0.08050394  0.90096048  0.69147396    -0.14470
C1128       C  0.05308682  0.89518224  0.65997064     0.37850
N1129       N  0.05788609  0.86488159  0.62885123    -0.88720
H1130       H  0.00064707  0.91806347  0.63410256     0.18970
H1131       H  0.08296977  0.92401078  0.75323014     0.18960
N1132       N  0.01870745  0.97254928  0.75595486    -0.87750
H1133       H  0.06179205  0.83765549  0.64157150     0.36340
H1134       H  0.08268872  0.87093272  0.61152853     0.41440
H1135       H  0.04232623  0.98846370  0.76819049     0.41060
H1136       H  0.00855436  0.95374577  0.77740792     0.35940
C1137       C  0.65270087  0.33001239  0.14567933     0.03660
C1138       C  0.63588564  0.29895696  0.16740537    -0.12490
C1139       C  0.61077156  0.30806161  0.20063615     0.01160
C1140       C  0.60327580  0.34723463  0.21219905    -0.11020
C1141       C  0.60892772  0.37575507  0.18496288     0.03650
C1142       C  0.63697586  0.36870487  0.15355324    -0.10440
H1143       H  0.64155441  0.26820313  0.15827093     0.09250
H1144       H  0.58253436  0.35364381  0.23671001     0.06780
H1145       H  0.64286300  0.39158243  0.13305450     0.06620
C1146       C  0.62571336  0.99327923  0.15581928     0.03660
C1147       C  0.58410487  0.50102878  0.17643448    -0.12490
C1148       C  0.54589616  0.49556630  0.16170397     0.01160
C1149       C  0.54084552  0.50126568  0.12142337    -0.11020
C1150       C  0.59116315  0.02355294  0.10053045     0.03650
C1151       C  0.62183893  0.99817633  0.11392353    -0.10440
H1152       H  0.58820778  0.50367354  0.20820806     0.09250
H1153       H  0.51110821  0.50143511  0.10980155     0.06780
H1154       H  0.64198451  0.98312583  0.09274343     0.06620
Zn1155     Zn  0.74675152  0.98244953  0.18973049     1.49720
Zn1156     Zn  0.74486971  0.05457493  0.25662485     1.49360
Zn1157     Zn  0.68396231  0.98306627  0.26007728     1.49110
Zn1158     Zn  0.77707680  0.47443199  0.26417602     1.49480
O1159       O  0.73817727  0.99745278  0.24590176    -1.83590
O1160       O  0.76343550  0.03120976  0.16282898    -0.74230
O1161       O  0.69612354  0.07601874  0.28585532    -0.74050
O1162       O  0.65344896  0.47380469  0.20922971    -0.73560
O1163       O  0.74521659  0.08254308  0.20316893    -0.74240
O1164       O  0.68768380  0.48773985  0.15520492    -0.73840
O1165       O  0.64979704  0.03364165  0.26718244    -0.74420
O1166       O  0.75523159  0.44966832  0.31144898    -0.73810
O1167       O  0.79457214  0.06646151  0.29147465    -0.74570
O1168       O  0.69342728  0.47285467  0.30893453    -0.73960
O1169       O  0.81487433  0.00618545  0.30568321    -0.74430
O1170       O  0.79846608  0.43190293  0.22855838    -0.74340
O1171       O  0.77719868  0.43886506  0.16714514    -0.74130
C1172       C  0.75387158  0.06797217  0.16837869     0.77660
C1173       C  0.66078147  0.06891319  0.27531083     0.78150
C1174       C  0.65475930  0.48281902  0.17260406     0.77110
C1175       C  0.72159159  0.45576608  0.32738499     0.77490
C1176       C  0.81821344  0.04361406  0.30927713     0.78630
C1177       C  0.79707053  0.41983354  0.19230059     0.77680
C1178       C  0.86761832  0.25869632  0.44194192     0.03660
C1179       C  0.90097899  0.24434525  0.46227689    -0.12490
C1180       C  0.93392672  0.22996048  0.43946030     0.01160
C1181       C  0.94086164  0.25115293  0.40584589    -0.11020
C1182       C  0.90791174  0.25470596  0.38178000     0.03650
C1183       C  0.87067322  0.26127582  0.40025590    -0.10440
H1184       H  0.89767370  0.23560212  0.49258464     0.09250
H1185       H  0.96971791  0.24896414  0.39148908     0.06780
H1186       H  0.84480204  0.26649754  0.38265211     0.06620
C1187       C  0.85248088  0.05974852  0.33194419     0.03660
C1188       C  0.87496358  0.09080327  0.31677918    -0.12490
C1189       C  0.91204721  0.09935287  0.33364267     0.01160
C1190       C  0.92904292  0.06812904  0.35262230    -0.11020
C1191       C  0.90402207  0.05370881  0.38169800     0.03650
C1192       C  0.88112077  0.54256302  0.34610069    -0.10440
H1193       H  0.86203189  0.11052381  0.29622334     0.09250
H1194       H  0.96019769  0.07031499  0.35907390     0.06780
H1195       H  0.86059000  0.53255940  0.36825790     0.06620
C1196       C  0.77959595  0.15591921  0.10738254     0.03660
C1197       C  0.75418032  0.13559025  0.13377362    -0.12490
C1198       C  0.75682097  0.09333724  0.13311946     0.01160
C1199       C  0.77630783  0.07519764  0.10007431    -0.11020
C1200       C  0.81227569  0.09228807  0.09183899     0.03650
C1201       C  0.81204710  0.13384374  0.09050797    -0.10440
H1202       H  0.73435256  0.15186921  0.15438840     0.09250
H1203       H  0.77470360  0.04331942  0.09552637     0.06780
H1204       H  0.83704942  0.14846407  0.07750250     0.06620
C1205       C  0.45356667  0.14676839  0.16268980     0.03660
C1206       C  0.94375682  0.10221514  0.17586594    -0.12490
C1207       C  0.93671114  0.06939192  0.14946287     0.01160
C1208       C  0.94708489  0.07317123  0.10939673    -0.11020
C1209       C  0.45662200  0.11156354  0.09784987     0.03650
C1210       C  0.45657916  0.14756264  0.12081524    -0.10440
H1211       H  0.94075906  0.09902554  0.20753906     0.09250
H1212       H  0.94716080  0.04739395  0.08896147     0.06780
H1213       H  0.45877571  0.17538870  0.10653573     0.06620
Zn1214     Zn  0.96637687  0.25995215  0.20487940     1.49720
Zn1215     Zn  0.96352688  0.20432812  0.27257060     1.49360
Zn1216     Zn  0.53646635  0.26092891  0.29231576     1.49110
Zn1217     Zn  0.93809872  0.29864842  0.28776227     1.49480
O1218       O  0.48736699  0.25600461  0.26391733    -1.83590
O1219       O  0.96348320  0.20660042  0.17809756    -0.74230
O1220       O  0.51588657  0.16736813  0.27160938    -0.74050
O1221       O  0.57764354  0.27964049  0.25375210    -0.73560
O1222       O  0.93690223  0.17306842  0.22635947    -0.74240
O1223       O  0.55128340  0.27303191  0.19373951    -0.73840
O1224       O  0.55566237  0.20629723  0.30707205    -0.74420
O1225       O  0.96313978  0.33469710  0.33101994    -0.73810
O1226       O  0.93690640  0.21696818  0.32700720    -0.74570
O1227       O  0.53257080  0.30606540  0.33645245    -0.73960
O1228       O  0.89872442  0.26868625  0.31555653    -0.74430
O1229       O  0.90322231  0.32766510  0.25373779    -0.74340
O1230       O  0.91409657  0.28742342  0.20020864    -0.74130
C1231       C  0.94867475  0.17508507  0.19009546     0.77660
C1232       C  0.54958063  0.17432795  0.28621817     0.78150
C1233       C  0.58010793  0.28226222  0.21618954     0.77110
C1234       C  0.50542948  0.33260740  0.34180157     0.77490
C1235       C  0.91321096  0.24517736  0.33917714     0.78630
C1236       C  0.89252165  0.31271451  0.22044855     0.77680
C1237       C  0.70369158  0.40621493  0.42588280     0.03660
C1238       C  0.72350521  0.41226687  0.38881800    -0.12490
C1239       C  0.71633115  0.44853518  0.37019940     0.01160
C1240       C  0.69559761  0.47815149  0.39218595    -0.11020
C1241       C  0.66378883  0.46448035  0.41349644     0.03650
C1242       C  0.67264295  0.43298210  0.43765260    -0.10440
H1243       H  0.74257520  0.38954814  0.37475247     0.09250
H1244       H  0.69281360  0.50675643  0.37941378     0.06780
H1245       H  0.65176005  0.42552869  0.46068514     0.06620
C1246       C  0.01056300  0.34950856  0.38237094     0.03660
C1247       C  0.00965758  0.39109437  0.39145393    -0.12490
C1248       C  0.03761696  0.40771280  0.41873295     0.01160
C1249       C  0.52012671  0.45377556  0.36670830    -0.11020
C1250       C  0.53473785  0.43650850  0.33107427     0.03650
C1251       C  0.52308665  0.39765999  0.32293656    -0.10440
H1252       H  0.98891653  0.40996292  0.37698604     0.09250
H1253       H  0.52232207  0.48542854  0.37068679     0.06780
H1254       H  0.52739665  0.38457958  0.29302585     0.06620
Zn1255     Zn  0.50685323  0.48878176  0.98435054     1.49720
Zn1256     Zn  0.93858681  0.04287085  0.98856425     1.49360
Zn1257     Zn  0.53053682  0.08504566  0.01076877     1.49110
Zn1258     Zn  0.50243626  0.06306586  0.43807085     1.49480
O1259       O  0.50380944  0.04280811  0.98154035    -1.83590
O1260       O  0.98265593  0.45451348  0.00126348    -0.74230
O1261       O  0.92333620  0.08740631  0.03117648    -0.74050
O1262       O  0.56145190  0.06042109  0.05201238    -0.73560
O1263       O  0.92829908  0.48663742  0.02089505    -0.74240
O1264       O  0.54650031  0.48253272  0.03088627    -0.73840
O1265       O  0.49019853  0.12043757  0.03805374    -0.74420
O1266       O  0.54870481  0.10220466  0.42615100    -0.73810
O1267       O  0.90281534  0.04595190  0.45372067    -0.74570
O1268       O  0.57016731  0.11704336  0.98158825    -0.73960
O1269       O  0.94447922  0.08759396  0.42963055    -0.74430
O1270       O  0.55293945  0.48405924  0.43514688    -0.74340
O1271       O  0.51645453  0.44618782  0.47121940    -0.74130
C1272       C  0.94718499  0.45417698  0.01470495     0.77660
C1273       C  0.94730487  0.11097113  0.04971336     0.78150
C1274       C  0.56289438  0.50873702  0.05415434     0.77110
C1275       C  0.56949348  0.12349622  0.45030801     0.77490
C1276       C  0.91672182  0.06286403  0.42388156     0.78630
C1277       C  0.53179302  0.45337587  0.43785057     0.77680
C1278       C  0.58444270  0.15314164  0.26825394     0.03660
C1279       C  0.59983357  0.11604385  0.27923474    -0.12490
C1280       C  0.63698517  0.10298951  0.26271412     0.01160
C1281       C  0.65703332  0.12765673  0.23693614    -0.11020
C1282       C  0.64757445  0.16793282  0.23910611     0.03650
C1283       C  0.60705251  0.17588958  0.24281523    -0.10440
H1284       H  0.58458067  0.09910066  0.30096404     0.09250
H1285       H  0.68615611  0.11908018  0.22603096     0.06780
H1286       H  0.59657279  0.20522165  0.23672570     0.06620
C1287       C  0.61372794  0.14250969  0.93313179     0.03660
C1288       C  0.61212931  0.15111427  0.39475596    -0.12490
C1289       C  0.64540983  0.17281171  0.38279979     0.01160
C1290       C  0.66813103  0.19246732  0.41073466    -0.11020
C1291       C  0.66929058  0.18556027  0.95248606     0.03650
C1292       C  0.63377853  0.16649295  0.96236856    -0.10440
H1293       H  0.59479256  0.13517250  0.37251734     0.09250
H1294       H  0.69392578  0.20785834  0.40020153     0.06780
H1295       H  0.62161030  0.17083123  0.99221827     0.06620
Zn1296     Zn  0.80036860  0.26169464  0.03939348     1.49720
Zn1297     Zn  0.71167055  0.25156229  0.05624770     1.49360
Zn1298     Zn  0.74672392  0.34147551  0.04836510     1.49110
Zn1299     Zn  0.74355762  0.29030965  0.46749883     1.49480
O1300       O  0.75019837  0.28536148  0.03021863    -1.83590
O1301       O  0.79952937  0.21663878  0.07915277    -0.74230
O1302       O  0.67898501  0.28512590  0.09543346    -0.74050
O1303       O  0.80479426  0.36614028  0.04501013    -0.73560
O1304       O  0.73550590  0.20661971  0.08708537    -0.74240
O1305       O  0.83686107  0.30854893  0.03957750    -0.73840
O1306       O  0.70666319  0.34511962  0.09912812    -0.74420
O1307       O  0.72907658  0.34096896  0.43859690    -0.73810
O1308       O  0.67996469  0.22185436  0.01434055    -0.74570
O1309       O  0.70636988  0.37926479  0.48951815    -0.73960
O1310       O  0.70416010  0.24704093  0.45732579    -0.74430
O1311       O  0.79820308  0.27394898  0.44555982    -0.74340
O1312       O  0.83090480  0.26907481  0.50141770    -0.74130
C1313       C  0.77117051  0.19609242  0.09235963     0.77660
C1314       C  0.68097147  0.32012211  0.11142029     0.78150
C1315       C  0.83699417  0.34632764  0.03803704     0.77110
C1316       C  0.71325539  0.37339730  0.45230549     0.77490
C1317       C  0.67898999  0.22574677  0.47505334     0.78630
C1318       C  0.83009308  0.26733160  0.46383382     0.77680
C1319       C  0.81809336  0.38175608  0.18179805     0.03660
C1320       C  0.83893494  0.36298439  0.21187818    -0.12490
C1321       C  0.85501430  0.32511646  0.20355390     0.01160
C1322       C  0.84320155  0.30442769  0.16923755    -0.11020
C1323       C  0.84205952  0.32749785  0.13659292     0.03650
C1324       C  0.82166459  0.36449940  0.14268393    -0.10440
H1325       H  0.84505707  0.37848884  0.24005951     0.09250
H1326       H  0.85322863  0.27398433  0.16517246     0.06780
H1327       H  0.81518852  0.38234746  0.11793703     0.06620
C1328       C  0.91108606  0.43236016  0.52425868     0.03660
C1329       C  0.95742671  0.38333194  0.02460742    -0.12490
C1330       C  0.94471035  0.34557762  0.03210048     0.01160
C1331       C  0.90727209  0.33665700  0.01767008    -0.11020
C1332       C  0.85664805  0.38464345  0.53227461     0.03650
C1333       C  0.86955876  0.42478865  0.53045320    -0.10440
H1334       H  0.98850634  0.38955234  0.02797125     0.09250
H1335       H  0.90054732  0.30559272  0.01283006     0.06780
H1336       H  0.84836692  0.44876622  0.53454380     0.06620
C1337       C  0.90611820  0.35908198  0.12267009    -0.25790
C1338       C  0.88136508  0.32638503  0.11573672    -0.13860
C1339       C  0.89910122  0.29131129  0.09711763     0.36770
C1340       C  0.93668132  0.29368394  0.07895832    -0.25230
C1341       C  0.95173259  0.33145156  0.07282607    -0.14470
C1342       C  0.94289433  0.36023893  0.10362620     0.37850
N1343       N  0.96759909  0.39376136  0.11065315    -0.88720
H1344       H  0.89702287  0.38388147  0.14254193     0.18970
H1345       H  0.94703826  0.26873338  0.05989373     0.18960
N1346       N  0.87872823  0.25453899  0.09213604    -0.87750
H1347       H  0.97467085  0.39520021  0.14077091     0.36340
H1348       H  0.95125156  0.41932311  0.10541784     0.41440
H1349       H  0.84961267  0.25803205  0.10191903     0.41060
H1350       H  0.89255149  0.23423569  0.10982506     0.35940
C1351       C  0.65511605  0.22506399  0.28679238    -0.25790
C1352       C  0.67469405  0.19465330  0.26376040    -0.13860
C1353       C  0.70275473  0.17450511  0.28618814     0.36770
C1354       C  0.69066371  0.16363850  0.32413919    -0.25230
C1355       C  0.65617243  0.18121729  0.34165666    -0.14470
C1356       C  0.64246644  0.21668317  0.32554212     0.37850
N1357       N  0.61673620  0.24367518  0.34836440    -0.88720
H1358       H  0.64239732  0.24979414  0.27235020     0.18970
H1359       H  0.70846114  0.14324052  0.34022043     0.18960
N1360       N  0.74064459  0.16236776  0.26982158    -0.87750
H1361       H  0.60944113  0.26784557  0.33174540     0.36340
H1362       H  0.63250801  0.25510964  0.37274293     0.41440
H1363       H  0.74311986  0.17091153  0.24052747     0.41060
H1364       H  0.74253552  0.13153995  0.26894578     0.35940
C1365       C  0.58832653  0.48524497  0.33476030    -0.25790
C1366       C  0.57707016  0.44622785  0.32364882    -0.13860
C1367       C  0.60389727  0.41611314  0.33251305     0.36790
C1368       C  0.62678815  0.42151994  0.36611820    -0.25230
C1369       C  0.63029355  0.45925083  0.38573673    -0.14470
C1370       C  0.61286794  0.49206550  0.36757333     0.37850
N1371       N  0.61819415  0.53221337  0.38239663    -0.88720
H1372       H  0.57105611  0.50995741  0.32502311     0.18970
H1373       H  0.64380660  0.39635121  0.37498958     0.18960
N1374       N  0.60463465  0.37871638  0.31038974    -0.87750
H1375       H  0.63449091  0.54678588  0.36112342     0.36340
H1376       H  0.63389069  0.53378164  0.40886314     0.41440
H1377       H  0.59871364  0.35646125  0.32992156     0.41060
H1378       H  0.63331858  0.37389216  0.29903394     0.35940
C1379       C  0.84674644  0.08438756  0.15499069    -0.25790
C1380       C  0.84390412  0.07341004  0.11405827    -0.13860
C1381       C  0.86223846  0.03731931  0.10029164     0.36770
C1382       C  0.88948502  0.01921226  0.12521325    -0.25230
C1383       C  0.90313382  0.04216272  0.15842834    -0.14470
C1384       C  0.87232633  0.06329761  0.17841873     0.37850
N1385       N  0.87210280  0.06969028  0.22064310    -0.88720
H1386       H  0.82810863  0.10755778  0.16892037     0.18970
H1387       H  0.90645202  0.99365467  0.11393447     0.18960
N1388       N  0.85473902  0.01987512  0.06159684    -0.87750
H1389       H  0.84492509  0.05979252  0.23102171     0.36340
H1390       H  0.87303634  0.10021582  0.22730795     0.41440
H1391       H  0.86066656  0.04089692  0.04077115     0.41060
H1392       H  0.82485859  0.01276766  0.05984289     0.35940
C1393       C  0.89684003  0.16970197  0.42178414    -0.25790
C1394       C  0.93433273  0.18667718  0.42685179    -0.13860
C1395       C  0.96562365  0.17138585  0.40170980     0.36770
C1396       C  0.95679098  0.14766851  0.36757514    -0.25230
C1397       C  0.91755902  0.13647126  0.35887015    -0.14470
C1398       C  0.88733255  0.14868661  0.38660547     0.37850
N1399       N  0.84674015  0.13893911  0.38008790    -0.88720
H1400       H  0.87265357  0.17787554  0.44209812     0.18970
H1401       H  0.98094291  0.13630724  0.34857405     0.18960
N1402       N  0.00612845  0.18145839  0.40903585    -0.87750
H1403       H  0.83033296  0.16532888  0.38023318     0.36340
H1404       H  0.83667406  0.12283630  0.40378765     0.41440
H1405       H  0.00826438  0.19967308  0.43497880     0.41060
H1406       H  0.01664628  0.19732987  0.38536930     0.35940
C1407       C  0.51730727  0.43155576  0.15371000    -0.25790
C1408       C  0.52108811  0.46474480  0.18015477    -0.13860
C1409       C  0.53316924  0.45471614  0.21807192     0.36770
C1410       C  0.56449775  0.42700720  0.21903551    -0.25230
C1411       C  0.57559946  0.40439093  0.18384898    -0.14470
C1412       C  0.54797166  0.40314614  0.15222849     0.37850
N1413       N  0.54992006  0.37471356  0.11884844    -0.88720
H1414       H  0.49840263  0.43342219  0.12839669     0.18970
H1415       H  0.58083862  0.42424124  0.24602347     0.18960
N1416       N  0.52194798  0.47880199  0.25281960    -0.87750
H1417       H  0.52297383  0.36004004  0.11752018     0.36340
H1418       H  0.57086581  0.35255032  0.12279960     0.41440
H1419       H  0.49941234  0.49852446  0.24577929     0.41060
H1420       H  0.54615895  0.49600985  0.26118604     0.35940
C1421       C  0.62880790  0.33985224  0.62224186     0.03660
C1422       C  0.60981464  0.30888382  0.64187573    -0.12490
C1423       C  0.57008889  0.31339969  0.65435716     0.01160
C1424       C  0.54980148  0.34761684  0.64704827    -0.11020
C1425       C  0.57044952  0.38070253  0.63764927     0.03650
C1426       C  0.60972443  0.37723838  0.62315231    -0.10440
H1427       H  0.62523915  0.28129486  0.64639356     0.09250
H1428       H  0.51920151  0.35126840  0.65700296     0.06780
H1429       H  0.62472055  0.40284508  0.61254679     0.06620
C1430       C  0.63297121  0.98491103  0.64915701     0.03660
C1431       C  0.58656848  0.50818493  0.69615035    -0.12490
C1432       C  0.55105835  0.52098189  0.67956882     0.01160
C1433       C  0.55629188  0.54314444  0.64622124    -0.11020
C1434       C  0.59591844  0.01256918  0.59464662     0.03650
C1435       C  0.62916134  0.99079515  0.60760281    -0.10440
H1436       H  0.58664384  0.50057067  0.72691725     0.09250
H1437       H  0.53074917  0.55940113  0.63659202     0.06780
H1438       H  0.65165127  0.97990215  0.58645462     0.06620
Zn1439     Zn  0.75708983  0.98755768  0.67549004     1.49720
Zn1440     Zn  0.75806812  0.05830798  0.74565007     1.49360
Zn1441     Zn  0.69614467  0.99063550  0.75031758     1.49110
Zn1442     Zn  0.77564514  0.46984144  0.78102088     1.49480
O1443       O  0.75033137  0.00133664  0.73279076    -1.83590
O1444       O  0.76461959  0.03892185  0.64869662    -0.74230
O1445       O  0.71035704  0.08039800  0.77760782    -0.74050
O1446       O  0.65216823  0.46600546  0.72430845    -0.73560
O1447       O  0.75790165  0.08902129  0.69371389    -0.74240
O1448       O  0.68728933  0.48261709  0.67188360    -0.73840
O1449       O  0.66238663  0.04290747  0.75424345    -0.74420
O1450       O  0.75046419  0.44292212  0.82563195    -0.73810
O1451       O  0.80945771  0.06682717  0.77864791    -0.74570
O1452       O  0.68860150  0.46665018  0.82426616    -0.73960
O1453       O  0.82690506  0.00536267  0.79165823    -0.74430
O1454       O  0.80090705  0.42732210  0.74594074    -0.74340
O1455       O  0.77672483  0.43275515  0.68532314    -0.74130
C1456       C  0.76042451  0.07606219  0.65745934     0.77660
C1457       C  0.67491225  0.07693628  0.76564283     0.78150
C1458       C  0.65406578  0.47846015  0.68900429     0.77110
C1459       C  0.71668277  0.44848710  0.84172927     0.77490
C1460       C  0.83243057  0.04251162  0.79538931     0.78630
C1461       C  0.79834866  0.41464236  0.70983134     0.77680
C1462       C  0.87459076  0.24756640  0.94631992     0.03660
C1463       C  0.90237553  0.22822150  0.96999002    -0.12490
C1464       C  0.93854825  0.21539272  0.95252885     0.01160
C1465       C  0.95440443  0.24185788  0.92648213    -0.11020
C1466       C  0.92875238  0.25512219  0.89799577     0.03650
C1467       C  0.88791519  0.25983710  0.90858368    -0.10440
H1468       H  0.89271271  0.21467669  0.99681790     0.09250
H1469       H  0.98560828  0.24028739  0.91913232     0.06780
H1470       H  0.86716479  0.27123072  0.88776587     0.06620
C1471       C  0.86809669  0.05662704  0.81732729     0.03660
C1472       C  0.88497076  0.09373200  0.81017928    -0.12490
C1473       C  0.92223520  0.10269532  0.82645569     0.01160
C1474       C  0.94554089  0.06979849  0.83368051    -0.11020
C1475       C  0.92617128  0.04361862  0.85748215     0.03650
C1476       C  0.87162213  0.54173638  0.86935323    -0.10440
H1477       H  0.86717008  0.11684975  0.79823022     0.09250
H1478       H  0.97682698  0.07420731  0.83837431     0.06780
H1479       H  0.85301389  0.52398222  0.88758730     0.06620
C1480       C  0.78021736  0.16949109  0.60162385     0.03660
C1481       C  0.75665034  0.14552278  0.62649957    -0.12490
C1482       C  0.76326623  0.10359472  0.62399579     0.01160
C1483       C  0.78616136  0.08901437  0.59155325    -0.11020
C1484       C  0.82067452  0.11009992  0.58678146     0.03650
C1485       C  0.81492914  0.15136770  0.58447353    -0.10440
H1486       H  0.73488493  0.15888435  0.64710994     0.09250
H1487       H  0.78781494  0.05730015  0.58544394     0.06780
H1488       H  0.83813580  0.16905482  0.57219647     0.06620
C1489       C  0.45978482  0.13602001  0.68669811     0.03660
C1490       C  0.95347498  0.10408862  0.70264977    -0.12490
C1491       C  0.93989002  0.07212168  0.67826639     0.01160
C1492       C  0.95837320  0.06762462  0.64077943    -0.11020
C1493       C  0.46332379  0.09885090  0.62241299     0.03650
C1494       C  0.46685549  0.13496667  0.64485292    -0.10440
H1495       H  0.94583658  0.10556034  0.73403292     0.09250
H1496       H  0.95646858  0.03950541  0.62389891     0.06780
H1497       H  0.47448249  0.16152007  0.63003813     0.06620
Zn1498     Zn  0.97780957  0.26380837  0.70853850     1.49720
Zn1499     Zn  0.99602774  0.21925433  0.78549496     1.49360
Zn1500     Zn  0.54599550  0.27752788  0.77144869     1.49110
Zn1501     Zn  0.96311676  0.31101971  0.79149440     1.49480
O1502       O  0.49092071  0.26351299  0.76855067    -1.83590
O1503       O  0.97477100  0.20761178  0.69068957    -0.74230
O1504       O  0.53697174  0.18020505  0.78546556    -0.74050
O1505       O  0.56807463  0.28684586  0.71710137    -0.73560
O1506       O  0.97183983  0.17662806  0.74691310    -0.74240
O1507       O  0.51412771  0.28341060  0.68030353    -0.73840
O1508       O  0.57778284  0.23099964  0.78630668    -0.74420
O1509       O  0.99465131  0.35919146  0.80663386    -0.73810
O1510       O  0.96523239  0.22928113  0.84022894    -0.74570
O1511       O  0.55403775  0.32993684  0.80455941    -0.73960
O1512       O  0.94181537  0.29138595  0.84163937    -0.74430
O1513       O  0.91397469  0.32588547  0.76337898    -0.74340
O1514       O  0.92370286  0.28737325  0.70861319    -0.74130
C1515       C  0.97087075  0.17610616  0.70887258     0.77660
C1516       C  0.57166800  0.19390704  0.78135965     0.78150
C1517       C  0.55070971  0.29071599  0.68440476     0.77110
C1518       C  0.52863360  0.35743300  0.81355512     0.77490
C1519       C  0.94538655  0.25847218  0.85739030     0.78630
C1520       C  0.90185550  0.31086017  0.73057036     0.77680
C1521       C  0.71258818  0.40368233  0.94467089     0.03660
C1522       C  0.71843390  0.40515513  0.90273700    -0.12490
C1523       C  0.71313133  0.44172651  0.88470796     0.01160
C1524       C  0.70630882  0.47554463  0.90923888    -0.11020
C1525       C  0.68745139  0.47155036  0.94596024     0.03650
C1526       C  0.69777879  0.43783966  0.96612324    -0.10440
H1527       H  0.72731599  0.37891202  0.88484138     0.09250
H1528       H  0.70534949  0.50376408  0.89556110     0.06780
H1529       H  0.68743384  0.43588493  0.99654441     0.06620
C1530       C  0.04367302  0.40634251  0.82310027     0.03660
C1531       C  0.01621127  0.43125026  0.84472329    -0.12490
C1532       C  0.02648386  0.47071489  0.85375589     0.01160
C1533       C  0.55367756  0.47637705  0.83685234    -0.11020
C1534       C  0.58649820  0.45153050  0.83896695     0.03650
C1535       C  0.57977126  0.41142976  0.82651498    -0.10440
H1536       H  0.98871872  0.41982062  0.85605409     0.09250
H1537       H  0.55814299  0.50809806  0.83921306     0.06780
H1538       H  0.60437079  0.39126975  0.81995451     0.06620
Zn1539     Zn  0.51376303  0.49054574  0.51577607     1.49720
Zn1540     Zn  0.93739894  0.04096393  0.50453954     1.49360
Zn1541     Zn  0.53303035  0.08072034  0.51815239     1.49110
Zn1542     Zn  0.50921229  0.06202641  0.92967252     1.49480
O1543       O  0.50065156  0.04093583  0.48948234    -1.83590
O1544       O  0.96447840  0.47642531  0.53797346    -0.74230
O1545       O  0.94029912  0.07414305  0.55830778    -0.74050
O1546       O  0.57495693  0.05337058  0.54627044    -0.73560
O1547       O  0.91790583  0.49768186  0.49879799    -0.74240
O1548       O  0.56064639  0.49862608  0.55544319    -0.73840
O1549       O  0.50108256  0.10475826  0.56387812    -0.74420
O1550       O  0.55814402  0.09847126  0.91939081    -0.73810
O1551       O  0.92213852  0.04482642  0.92934463    -0.74570
O1552       O  0.56384794  0.12115495  0.48751379    -0.73960
O1553       O  0.98108120  0.03704339  0.89946484    -0.74430
O1554       O  0.50285997  0.52012871  0.89242282    -0.74340
O1555       O  0.51912433  0.46840121  0.92722607    -0.74130
C1556       C  0.93077765  0.47185017  0.52162164     0.77660
C1557       C  0.96570718  0.09689032  0.57604352     0.78150
C1558       C  0.56974435  0.53032442  0.57571465     0.77110
C1559       C  0.57867068  0.11839519  0.94490204     0.77490
C1560       C  0.94350051  0.04010142  0.89764470     0.78630
C1561       C  0.51175284  0.48388425  0.89421512     0.77680
C1562       C  0.60563382  0.16952336  0.76374963     0.03660
C1563       C  0.61705999  0.12983741  0.77221637    -0.12490
C1564       C  0.65379370  0.11420134  0.75564364     0.01160
C1565       C  0.67704028  0.13935226  0.73308214    -0.11020
C1566       C  0.67131669  0.18003074  0.73920574     0.03650
C1567       C  0.63150044  0.19065948  0.73945328    -0.10440
H1568       H  0.59946753  0.11290189  0.79215021     0.09250
H1569       H  0.70573619  0.12935155  0.72240508     0.06780
H1570       H  0.62446201  0.22086895  0.73267566     0.06620
C1571       C  0.60180565  0.15013438  0.43579656     0.03660
C1572       C  0.62803156  0.14240154  0.89333506    -0.12490
C1573       C  0.66456121  0.16042653  0.88493821     0.01160
C1574       C  0.68646996  0.17716688  0.91538194    -0.11020
C1575       C  0.65637710  0.19659876  0.45026870     0.03650
C1576       C  0.62377566  0.17444369  0.46336212    -0.10440
H1577       H  0.61111265  0.12880297  0.86932810     0.09250
H1578       H  0.71477052  0.18989635  0.90786099     0.06780
H1579       H  0.61556550  0.17623347  0.49459577     0.06620
Zn1580     Zn  0.79388981  0.28456442  0.54536592     1.49720
Zn1581     Zn  0.70633040  0.26085589  0.55212680     1.49360
Zn1582     Zn  0.73002363  0.35386877  0.53707081     1.49110
Zn1583     Zn  0.75099050  0.28384071  0.97225331     1.49480
O1584       O  0.74254639  0.29711775  0.52523332    -1.83590
O1585       O  0.79465545  0.23401917  0.57817821    -0.74230
O1586       O  0.67043802  0.29409811  0.58703629    -0.74050
O1587       O  0.78417435  0.38398067  0.53752884    -0.73560
O1588       O  0.73194911  0.21750063  0.58372609    -0.74240
O1589       O  0.81819582  0.33666614  0.56486360    -0.73840
O1590       O  0.68651461  0.35783308  0.58303384    -0.74420
O1591       O  0.73141874  0.33523414  0.94942983    -0.73810
O1592       O  0.67370021  0.22921237  0.51247583    -0.74570
O1593       O  0.72246283  0.37244171  0.00522913    -0.73960
O1594       O  0.71462567  0.23797311  0.96052412    -0.74430
O1595       O  0.80821857  0.27628078  0.94859551    -0.74340
O1596       O  0.82285921  0.23229853  0.99130679    -0.74130
C1597       C  0.76828764  0.20987119  0.58908742     0.77660
C1598       C  0.66464324  0.33059628  0.59695272     0.78150
C1599       C  0.81738581  0.36916024  0.54687149     0.77110
C1600       C  0.72194399  0.36821007  0.96734281     0.77490
C1601       C  0.68866257  0.21680055  0.97747571     0.78630
C1602       C  0.83291115  0.25177967  0.96175396     0.77680
C1603       C  0.82025968  0.37712896  0.69794448     0.03660
C1604       C  0.84445676  0.35869792  0.72585198    -0.12490
C1605       C  0.86294619  0.32206221  0.71521963     0.01160
C1606       C  0.85167320  0.30200394  0.68018434    -0.11020
C1607       C  0.84386665  0.32579720  0.64908585     0.03650
C1608       C  0.82122276  0.36080189  0.65843062    -0.10440
H1609       H  0.85111182  0.37381540  0.75408462     0.09250
H1610       H  0.86478245  0.27306816  0.67330623     0.06780
H1611       H  0.81082496  0.37850446  0.63482324     0.06620
C1612       C  0.92960621  0.41449015  0.02204405     0.03660
C1613       C  0.93755135  0.39981889  0.52271176    -0.12490
C1614       C  0.92429779  0.36221148  0.53024207     0.01160
C1615       C  0.88469518  0.35494695  0.52225459    -0.11020
C1616       C  0.87671956  0.36436224  0.02709220     0.03650
C1617       C  0.88814104  0.40529525  0.02721674    -0.10440
H1618       H  0.96904487  0.40434818  0.52146086     0.09250
H1619       H  0.87533078  0.32451243  0.52063351     0.06780
H1620       H  0.86607454  0.42868085  0.03059231     0.06620
C1621       C  0.90189724  0.36260352  0.62752554    -0.25790
C1622       C  0.87885299  0.32858215  0.62212000    -0.13860
C1623       C  0.89439636  0.29702243  0.59643809     0.36770
C1624       C  0.92653911  0.30466233  0.57099720    -0.25230
C1625       C  0.93803743  0.34414858  0.56712074    -0.14470
C1626       C  0.93305086  0.36945071  0.60157537     0.37850
N1627       N  0.95421847  0.40561045  0.60653109    -0.88720
H1628       H  0.89505099  0.38471620  0.65120129     0.18970
H1629       H  0.93425710  0.28267901  0.54747149     0.18960
N1630       N  0.87691540  0.25859664  0.59276625    -0.87750
H1631       H  0.96660262  0.40627872  0.63477560     0.36340
H1632       H  0.93392978  0.42915331  0.60652076     0.41440
H1633       H  0.85231488  0.25702904  0.61139965     0.41060
H1634       H  0.89767932  0.23813556  0.60216436     0.35940
C1635       C  0.67463628  0.22602959  0.79885461    -0.25790
C1636       C  0.69572470  0.19988754  0.77192814    -0.13860
C1637       C  0.72297844  0.17525358  0.79077307     0.36770
C1638       C  0.71068793  0.15916190  0.82646996    -0.25230
C1639       C  0.67609287  0.17413127  0.84589066    -0.14470
C1640       C  0.66218181  0.21160353  0.83528050     0.37850
N1641       N  0.63751229  0.23540382  0.86233374    -0.88720
H1642       H  0.66034688  0.25227706  0.78850671     0.18970
H1643       H  0.72817805  0.13622117  0.83930984     0.18960
N1644       N  0.76033571  0.16398250  0.77254274    -0.87750
H1645       H  0.61115779  0.24212554  0.84849817     0.36340
H1646       H  0.65206543  0.26199077  0.86904351     0.41440
H1647       H  0.76326751  0.17701097  0.74522379     0.41060
H1648       H  0.76092164  0.13338070  0.76673577     0.35940
C1649       C  0.62063581  0.50146253  0.88389975    -0.25790
C1650       C  0.60845137  0.46174044  0.87635173    -0.13860
C1651       C  0.60557360  0.43772107  0.90968960     0.36790
C1652       C  0.61953591  0.45216642  0.94660130    -0.25230
C1653       C  0.64500740  0.48463616  0.94755271    -0.14470
C1654       C  0.63491929  0.51412899  0.92135244     0.37850
N1655       N  0.64662535  0.55448504  0.92876031    -0.88720
H1656       H  0.61892851  0.52263599  0.86098863     0.18970
H1657       H  0.61929830  0.43251487  0.97094820     0.18960
N1658       N  0.58828567  0.39923236  0.90681104    -0.87750
H1659       H  0.66784866  0.56133601  0.90741570     0.36340
H1660       H  0.65994940  0.55779208  0.95653489     0.41440
H1661       H  0.56460550  0.39888981  0.92709091     0.41060
H1662       H  0.60948585  0.37865768  0.91510774     0.35940
C1663       C  0.85358270  0.11711114  0.65152586    -0.25790
C1664       C  0.85089899  0.09578432  0.61454750    -0.13860
C1665       C  0.86442325  0.05563998  0.61226281     0.36770
C1666       C  0.88292043  0.04019496  0.64526800    -0.25230
C1667       C  0.89593060  0.06647991  0.67619667    -0.14470
C1668       C  0.87287417  0.10110740  0.68321632     0.37850
N1669       N  0.87179926  0.12181167  0.72138243    -0.88720
H1670       H  0.83855650  0.14535561  0.65694906     0.18970
H1671       H  0.89611798  0.01083835  0.64168393     0.18960
N1672       N  0.86150546  0.03047547  0.57668324    -0.87750
H1673       H  0.84220792  0.12420442  0.73070711     0.36340
H1674       H  0.88211221  0.15051482  0.71818056     0.41440
H1675       H  0.85050576  0.04586681  0.55311646     0.41060
H1676       H  0.84187179  0.00774504  0.58243118     0.35940
C1677       C  0.90286903  0.15599369  0.92659362    -0.25790
C1678       C  0.93956853  0.17385075  0.93423733    -0.13860
C1679       C  0.97165677  0.16192603  0.90872890     0.36770
C1680       C  0.96386025  0.14518380  0.87086640    -0.25230
C1681       C  0.92547663  0.13302326  0.86017797    -0.14470
C1682       C  0.89500721  0.13748359  0.88960465     0.37850
N1683       N  0.85592260  0.12299904  0.88270443    -0.88720
H1684       H  0.87828258  0.16054061  0.94736676     0.18970
H1685       H  0.98855724  0.13924977  0.85046904     0.18960
N1686       N  0.01203283  0.16812656  0.91999221    -0.87750
H1687       H  0.83600004  0.14680844  0.88652782     0.36340
H1688       H  0.84932850  0.10270795  0.90411240     0.41440
H1689       H  0.01330313  0.18135275  0.94872369     0.41060
H1690       H  0.02512813  0.18719974  0.90038094     0.35940
C1691       C  0.51220519  0.47564451  0.63652966    -0.25790
C1692       C  0.51915733  0.49016872  0.67607868    -0.13860
C1693       C  0.52152349  0.46044333  0.70345699     0.36770
C1694       C  0.54115440  0.42519957  0.69081736    -0.25230
C1695       C  0.55090861  0.41801032  0.65014021    -0.14470
C1696       C  0.53262264  0.44122387  0.62246063     0.37850
N1697       N  0.53374429  0.42960274  0.58094446    -0.88720
H1698       H  0.50056077  0.49515092  0.61506368     0.18970
H1699       H  0.54937382  0.40410846  0.71243485     0.18960
N1700       N  0.51269991  0.46929267  0.74460484    -0.87750
H1701       H  0.52261466  0.40098325  0.57746304     0.36340
H1702       H  0.56336765  0.42774590  0.57168181     0.41440
H1703       H  0.53845811  0.46459590  0.76040671     0.41060
H1704       H  0.49200875  0.44871058  0.75356121     0.35940
C1705       C  0.62561988  0.84186074  0.12234110     0.03660
C1706       C  0.60551046  0.81144257  0.14173564    -0.12490
C1707       C  0.56751541  0.81858468  0.15804871     0.01160
C1708       C  0.55014338  0.85537016  0.15623099    -0.11020
C1709       C  0.57137495  0.88674378  0.14333601     0.03650
C1710       C  0.60888760  0.88043973  0.12495142    -0.10440
H1711       H  0.61870884  0.78225868  0.14332419     0.09250
H1712       H  0.52098811  0.86098259  0.16954550     0.06780
H1713       H  0.62440307  0.90489748  0.11264565     0.06620
C1714       C  0.61690637  0.49158953  0.15189352     0.03660
C1715       C  0.59660972  0.01078478  0.18154196    -0.12490
C1716       C  0.56180045  0.02611116  0.16598526     0.01160
C1717       C  0.56676211  0.04355843  0.12981089    -0.11020
C1718       C  0.57328782  0.49931806  0.09501044     0.03650
C1719       C  0.61194055  0.49304051  0.10998415    -0.10440
H1720       H  0.59735973  0.00559152  0.21291631     0.09250
H1721       H  0.54202795  0.06135594  0.12064719     0.06780
H1722       H  0.63714641  0.48985195  0.08984899     0.06620
Zn1723     Zn  0.74271616  0.49066482  0.17787801     1.49720
Zn1724     Zn  0.75340503  0.56199918  0.24434509     1.49360
Zn1725     Zn  0.68680780  0.49892132  0.25412087     1.49110
Zn1726     Zn  0.77727516  0.96953709  0.27640666     1.49480
O1727       O  0.74025098  0.50643461  0.23477533    -1.83590
O1728       O  0.75845344  0.53771518  0.14816415    -0.74230
O1729       O  0.70864452  0.58888906  0.27542347    -0.74050
O1730       O  0.65573188  0.96050590  0.20998951    -0.73560
O1731       O  0.75286465  0.58978198  0.19115724    -0.74240
O1732       O  0.69455924  0.97951952  0.16129219    -0.73840
O1733       O  0.65727990  0.55242987  0.25847267    -0.74420
O1734       O  0.75284485  0.94025368  0.31885000    -0.73810
O1735       O  0.80676578  0.56743447  0.27495327    -0.74570
O1736       O  0.68806327  0.95088906  0.31195244    -0.73960
O1737       O  0.82127814  0.50525309  0.28800255    -0.74430
O1738       O  0.80610903  0.92811498  0.24370703    -0.74340
O1739       O  0.78289233  0.93105140  0.18251677    -0.74130
C1740       C  0.75545639  0.57515009  0.15547129     0.77660
C1741       C  0.67241180  0.58614180  0.26585619     0.78150
C1742       C  0.66019463  0.97437015  0.17541150     0.77110
C1743       C  0.71760563  0.93729563  0.33114163     0.77490
C1744       C  0.82914894  0.54180458  0.29063749     0.78630
C1745       C  0.80431950  0.91410648  0.20807932     0.77680
C1746       C  0.87673072  0.73247075  0.44244039     0.03660
C1747       C  0.89534114  0.69606664  0.44993528    -0.12490
C1748       C  0.93198420  0.68655110  0.43110786     0.01160
C1749       C  0.95494133  0.71895648  0.42264106    -0.11020
C1750       C  0.93486788  0.74758869  0.40245907     0.03650
C1751       C  0.89538167  0.75686360  0.41482480    -0.10440
H1752       H  0.87892507  0.67343233  0.46438251     0.09250
H1753       H  0.98572966  0.71380008  0.41444655     0.06780
H1754       H  0.87939787  0.78112901  0.40252351     0.06620
C1755       C  0.86769653  0.55315659  0.30784428     0.03660
C1756       C  0.89426577  0.57258460  0.28338796    -0.12490
C1757       C  0.93186034  0.58192309  0.29781491     0.01160
C1758       C  0.94677403  0.55267868  0.32120581    -0.11020
C1759       C  0.92239736  0.54519545  0.35399935     0.03650
C1760       C  0.86523286  0.04441347  0.36863472    -0.10440
H1761       H  0.88395087  0.58461919  0.25649231     0.09250
H1762       H  0.97857924  0.55056825  0.32378971     0.06780
H1763       H  0.84526977  0.02792471  0.38671585     0.06620
C1764       C  0.77432560  0.66578616  0.09538204     0.03660
C1765       C  0.75284474  0.64296176  0.12277673    -0.12490
C1766       C  0.75902308  0.60110876  0.12113959     0.01160
C1767       C  0.78026292  0.58478265  0.08818983    -0.11020
C1768       C  0.81349817  0.60620385  0.07873468     0.03650
C1769       C  0.80609633  0.64667142  0.07386297    -0.10440
H1770       H  0.73326781  0.65724915  0.14501538     0.09250
H1771       H  0.78244065  0.55288298  0.08400154     0.06780
H1772       H  0.82767871  0.66374115  0.05826706     0.06620
C1773       C  0.45507829  0.63969760  0.18017474     0.03660
C1774       C  0.95031126  0.60924489  0.19942619    -0.12490
C1775       C  0.93681999  0.57772893  0.17478821     0.01160
C1776       C  0.95767952  0.57126227  0.13888059    -0.11020
C1777       C  0.45558620  0.60463218  0.11474584     0.03650
C1778       C  0.45880385  0.64020059  0.13807126    -0.10440
H1779       H  0.93997711  0.61225455  0.22969704     0.09250
H1780       H  0.95492701  0.54313375  0.12217227     0.06780
H1781       H  0.46383532  0.66761554  0.12371449     0.06620
Zn1782     Zn  0.98518079  0.76524632  0.21338826     1.49720
Zn1783     Zn  0.99233483  0.71575543  0.28553511     1.49360
Zn1784     Zn  0.54024073  0.77819419  0.27047621     1.49110
Zn1785     Zn  0.96692529  0.80757418  0.29748131     1.49480
O1786       O  0.48500562  0.76484966  0.26610161    -1.83590
O1787       O  0.98298621  0.71006886  0.19095130    -0.74230
O1788       O  0.53193269  0.68246193  0.27968049    -0.74050
O1789       O  0.56435957  0.78458307  0.21645418    -0.73560
O1790       O  0.96278803  0.68076595  0.24460422    -0.74240
O1791       O  0.50992138  0.78910226  0.18058948    -0.73840
O1792       O  0.57055087  0.73374432  0.29216959    -0.74420
O1793       O  0.99898276  0.85488086  0.31113118    -0.73810
O1794       O  0.96616059  0.72499092  0.34131560    -0.74570
O1795       O  0.54786799  0.83143341  0.30137947    -0.73960
O1796       O  0.94780986  0.78860712  0.34901492    -0.74430
O1797       O  0.91752165  0.82237730  0.26913191    -0.74340
O1798       O  0.93111151  0.79014340  0.21119740    -0.74130
C1799       C  0.97062629  0.67964181  0.20720593     0.77660
C1800       C  0.56621425  0.69744594  0.28113365     0.78150
C1801       C  0.54699826  0.79337709  0.18495868     0.77110
C1802       C  0.52272842  0.85825696  0.31294866     0.77490
C1803       C  0.95027585  0.75432536  0.36210239     0.78630
C1804       C  0.90757358  0.81081664  0.23429093     0.77680
C1805       C  0.71277696  0.89080673  0.43314898     0.03660
C1806       C  0.71853182  0.89248965  0.39126237    -0.12490
C1807       C  0.71298455  0.92923555  0.37352501     0.01160
C1808       C  0.70661525  0.96313273  0.39799492    -0.11020
C1809       C  0.68953447  0.95976836  0.43549137     0.03650
C1810       C  0.69870051  0.92528563  0.45485769    -0.10440
H1811       H  0.72732352  0.86631834  0.37322146     0.09250
H1812       H  0.70583176  0.99141932  0.38436029     0.06780
H1813       H  0.68897111  0.92386078  0.48552506     0.06620
C1814       C  0.04670618  0.90189665  0.33009269     0.03660
C1815       C  0.01720574  0.92701390  0.34838556    -0.12490
C1816       C  0.02544854  0.96720513  0.35588623     0.01160
C1817       C  0.55035858  0.97650673  0.33773362    -0.11020
C1818       C  0.58296766  0.95109617  0.33526145     0.03650
C1819       C  0.57443679  0.91177569  0.32179448    -0.10440
H1820       H  0.98942150  0.91525833  0.35862209     0.09250
H1821       H  0.55568664  0.00807396  0.34101920     0.06780
H1822       H  0.59805634  0.89166909  0.31165675     0.06620
Zn1823     Zn  0.52855921  0.99186009  0.98779186     1.49720
Zn1824     Zn  0.94729391  0.54142214  0.00366313     1.49360
Zn1825     Zn  0.52609467  0.57855449  0.01552999     1.49110
Zn1826     Zn  0.52663786  0.53726196  0.43814553     1.49480
O1827       O  0.49171171  0.54361239  0.98361526    -1.83590
O1828       O  0.95425934  0.97865820  0.05393944    -0.74230
O1829       O  0.94813322  0.57812631  0.05521963    -0.74050
O1830       O  0.56006058  0.54550067  0.04866845    -0.73560
O1831       O  0.91466355  0.99025955  0.00422714    -0.74240
O1832       O  0.57245298  0.99698757  0.03378196    -0.73840
O1833       O  0.49348650  0.60927671  0.05655282    -0.74420
O1834       O  0.56746752  0.58171419  0.42714440    -0.73810
O1835       O  0.92260716  0.55452461  0.42663961    -0.74570
O1836       O  0.56325540  0.61464802  0.98668319    -0.73960
O1837       O  0.97934177  0.54264778  0.39366701    -0.74430
O1838       O  0.50379033  0.01898968  0.39849507    -0.74340
O1839       O  0.52612266  0.96779012  0.43099668    -0.74130
C1840       C  0.92464556  0.96903522  0.03254029     0.77660
C1841       C  0.97469864  0.59764991  0.07504670     0.78150
C1842       C  0.57667467  0.02694397  0.05874306     0.77110
C1843       C  0.58255105  0.60846991  0.45041866     0.77490
C1844       C  0.94176684  0.54691881  0.39389709     0.78630
C1845       C  0.51418394  0.98303436  0.39911510     0.77680
C1846       C  0.60152366  0.67611705  0.26337998     0.03660
C1847       C  0.61374024  0.63664197  0.27072887    -0.12490
C1848       C  0.65160790  0.62319485  0.25590812     0.01160
C1849       C  0.67476928  0.64965275  0.23481542    -0.11020
C1850       C  0.66792077  0.68997575  0.24305926     0.03650
C1851       C  0.62778613  0.69973161  0.24205648    -0.10440
H1852       H  0.59583601  0.61827481  0.28902638     0.09250
H1853       H  0.70391795  0.64050788  0.22415136     0.06780
H1854       H  0.62008966  0.73035076  0.23770073     0.06620
C1855       C  0.60405686  0.64387496  0.93784611     0.03660
C1856       C  0.62788850  0.63514221  0.39650888    -0.12490
C1857       C  0.66396023  0.65342324  0.38658781     0.01160
C1858       C  0.68855541  0.66687809  0.41639422    -0.11020
C1859       C  0.65938053  0.68733313  0.95621579     0.03650
C1860       C  0.62324756  0.66946870  0.96631614    -0.10440
H1861       H  0.60892730  0.62344668  0.37317667     0.09250
H1862       H  0.71681404  0.67920060  0.40806160     0.06780
H1863       H  0.60993638  0.67596964  0.99540189     0.06620
Zn1864     Zn  0.79103467  0.78150531  0.04492248     1.49720
Zn1865     Zn  0.70288584  0.76081145  0.05364197     1.49360
Zn1866     Zn  0.72891890  0.85147895  0.03845709     1.49110
Zn1867     Zn  0.75457355  0.77332385  0.46910827     1.49480
O1868       O  0.74000207  0.79504570  0.02556542    -1.83590
O1869       O  0.79103814  0.72978334  0.07386669    -0.74230
O1870       O  0.66648938  0.79455337  0.08774923    -0.74050
O1871       O  0.78283351  0.88017853  0.04343965    -0.73560
O1872       O  0.72789687  0.71767694  0.08518537    -0.74240
O1873       O  0.81505896  0.83088821  0.06941742    -0.73840
O1874       O  0.68345478  0.85768824  0.08222143    -0.74420
O1875       O  0.73839696  0.82419989  0.44088292    -0.73810
O1876       O  0.67122612  0.72737013  0.01525620    -0.74570
O1877       O  0.71283188  0.85794386  0.49325196    -0.73960
O1878       O  0.71700767  0.72855965  0.45968431    -0.74430
O1879       O  0.80971520  0.75733125  0.44623601    -0.74340
O1880       O  0.83949654  0.74257725  0.50170077    -0.74130
C1881       C  0.76401924  0.70726933  0.08628908     0.77660
C1882       C  0.66099702  0.83128841  0.09667440     0.78150
C1883       C  0.81530074  0.86421299  0.05309738     0.77110
C1884       C  0.72108648  0.85517419  0.45626162     0.77490
C1885       C  0.69337079  0.70622708  0.47814498     0.78630
C1886       C  0.83966038  0.74421171  0.46412132     0.77680
C1887       C  0.82622425  0.87605553  0.19839500     0.03660
C1888       C  0.85093363  0.85930604  0.22705214    -0.12490
C1889       C  0.86864250  0.82176097  0.21862495     0.01160
C1890       C  0.85623534  0.79944057  0.18524220    -0.11020
C1891       C  0.84702572  0.82089447  0.15277026     0.03650
C1892       C  0.82541183  0.85676871  0.16028809    -0.10440
H1893       H  0.85851227  0.87626061  0.25400942     0.09250
H1894       H  0.86930807  0.77021150  0.17946367     0.06780
H1895       H  0.81413183  0.87271441  0.13586704     0.06620
C1896       C  0.90982940  0.91607342  0.50048944     0.03660
C1897       C  0.93541862  0.89750214  0.03443535    -0.12490
C1898       C  0.92309994  0.85861084  0.03819700     0.01160
C1899       C  0.88340186  0.85097509  0.03038739    -0.11020
C1900       C  0.85837318  0.86875959  0.51755809     0.03650
C1901       C  0.87330421  0.90806133  0.52039544    -0.10440
H1902       H  0.96668761  0.90369985  0.03616363     0.09250
H1903       H  0.87423309  0.82054533  0.02694890     0.06780
H1904       H  0.85815872  0.93095325  0.53868240     0.06620
C1905       C  0.90799620  0.85294862  0.13244286    -0.25790
C1906       C  0.88148835  0.82182651  0.12530188    -0.13860
C1907       C  0.89387234  0.79013529  0.09824885     0.36770
C1908       C  0.92625942  0.79641666  0.07242910    -0.25230
C1909       C  0.94055273  0.83534146  0.07032752    -0.14470
C1910       C  0.94004511  0.85742898  0.10695871     0.37850
N1911       N  0.96591759  0.88991897  0.11418852    -0.88720
H1912       H  0.90360940  0.87419252  0.15742395     0.18970
H1913       H  0.93197885  0.77508013  0.04780884     0.18960
N1914       N  0.87324172  0.75332323  0.09418021    -0.87750
H1915       H  0.97815742  0.88680349  0.14214612     0.36340
H1916       H  0.94891994  0.91599623  0.11619017     0.41440
H1917       H  0.84954914  0.75290186  0.11428115     0.41060
H1918       H  0.89283752  0.73090203  0.10164616     0.35940
C1919       C  0.66598541  0.72826979  0.30773346    -0.25790
C1920       C  0.68988475  0.70755900  0.27872037    -0.13860
C1921       C  0.71914627  0.68323994  0.29493503     0.36770
C1922       C  0.70861427  0.66267805  0.32855453    -0.25230
C1923       C  0.67248987  0.67165130  0.34872866    -0.14470
C1924       C  0.65370303  0.70805362  0.34114600     0.37850
N1925       N  0.62278921  0.72417719  0.36722020    -0.88720
H1926       H  0.64941308  0.75415707  0.29975677     0.18970
H1927       H  0.72846827  0.64033467  0.33910388     0.18960
N1928       N  0.75669285  0.67582470  0.27532888    -0.87750
H1929       H  0.61234246  0.75103458  0.35727166     0.36340
H1930       H  0.63518726  0.73091801  0.39496423     0.41440
H1931       H  0.75825797  0.69155571  0.24948860     0.41060
H1932       H  0.75896015  0.64575185  0.26667832     0.35940
C1933       C  0.62253286  0.99744807  0.37901233    -0.25790
C1934       C  0.60798788  0.95865022  0.37107317    -0.13860
C1935       C  0.60559336  0.93368663  0.40379359     0.36790
C1936       C  0.62087057  0.94684283  0.44055534    -0.25230
C1937       C  0.64877587  0.97711094  0.44083438    -0.14470
C1938       C  0.63944188  0.00801480  0.41591196     0.37850
N1939       N  0.65350697  0.04747763  0.42396017    -0.88720
H1940       H  0.62031504  0.01950723  0.35699364     0.18970
H1941       H  0.62013267  0.92680140  0.46457137     0.18960
N1942       N  0.58750621  0.89559283  0.40050500    -0.87750
H1943       H  0.67442005  0.05362544  0.40205196     0.36340
H1944       H  0.66798275  0.04911698  0.45119947     0.41440
H1945       H  0.56449678  0.89511998  0.42153617     0.41060
H1946       H  0.60861434  0.87436606  0.40749701     0.35940
C1947       C  0.85028173  0.62151657  0.14006514    -0.25790
C1948       C  0.84588863  0.59600937  0.10597232    -0.13860
C1949       C  0.86069967  0.55657927  0.10715857     0.36770
C1950       C  0.88079139  0.54518748  0.14091901    -0.25230
C1951       C  0.89311065  0.57424276  0.16959863    -0.14470
C1952       C  0.87101246  0.60993940  0.17268553     0.37850
N1953       N  0.87157591  0.63594957  0.20770697    -0.88720
H1954       H  0.83576378  0.65019755  0.14282166     0.18970
H1955       H  0.89451433  0.51602601  0.13995585     0.18960
N1956       N  0.85741611  0.52805840  0.07418231    -0.87750
H1957       H  0.84250242  0.63965702  0.21837432     0.36340
H1958       H  0.88164917  0.66361869  0.19982935     0.41440
H1959       H  0.84485938  0.54061515  0.04963353     0.41060
H1960       H  0.83886988  0.50549096  0.08296126     0.35940
C1961       C  0.90054428  0.66046397  0.36933042    -0.25790
C1962       C  0.93240274  0.65805519  0.39572730    -0.13860
C1963       C  0.96871372  0.64164121  0.38047346     0.36770
C1964       C  0.97165646  0.62802793  0.34051375    -0.25230
C1965       C  0.93726604  0.62247221  0.31770899    -0.14470
C1966       C  0.90338504  0.64472767  0.33023431     0.37850
N1967       N  0.87143630  0.65070790  0.30367939    -0.88720
H1968       H  0.87377915  0.67666989  0.37811039     0.18970
H1969       H  0.99926854  0.61428342  0.33010390     0.18960
N1970       N  0.00276629  0.63739315  0.40495579    -0.87750
H1971       H  0.86761119  0.68118386  0.30121750     0.36340
H1972       H  0.84559132  0.63987506  0.31635759     0.41440
H1973       H  0.99649585  0.64587668  0.43467319     0.41060
H1974       H  0.02489112  0.65584317  0.39476106     0.35940
C1975       C  0.51543091  0.98193116  0.13260970    -0.25790
C1976       C  0.52545852  0.00091503  0.16950662    -0.13860
C1977       C  0.52627868  0.97500655  0.20069738     0.36770
C1978       C  0.54335896  0.93739713  0.19211314    -0.25230
C1979       C  0.55277296  0.92543372  0.15213398    -0.14470
C1980       C  0.53568461  0.94654841  0.12188082     0.37850
N1981       N  0.53934795  0.93315141  0.08099218    -0.88720
H1982       H  0.50450328  0.99910854  0.10888411     0.18970
H1983       H  0.55067324  0.91868567  0.21612208     0.18960
N1984       N  0.51913620  0.98961908  0.24080589    -0.87750
H1985       H  0.53015661  0.90381610  0.07870701     0.36340
H1986       H  0.56935977  0.93286319  0.07321250     0.41440
H1987       H  0.54524369  0.98645483  0.25655050     0.41060
H1988       H  0.49797024  0.97150289  0.25326447     0.35940
C1989       C  0.63534543  0.82825164  0.61714135     0.03660
C1990       C  0.61246975  0.79930337  0.63537512    -0.12490
C1991       C  0.57201567  0.80645335  0.64292864     0.01160
C1992       C  0.55460226  0.84031692  0.62995873    -0.11020
C1993       C  0.57824155  0.87224452  0.62357983     0.03650
C1994       C  0.61883291  0.86659582  0.61503496    -0.10440
H1995       H  0.62573875  0.77155124  0.64321580     0.09250
H1996       H  0.52329766  0.84578123  0.63550128     0.06780
H1997       H  0.63671829  0.89119805  0.60649018     0.06620
C1998       C  0.61816118  0.49564516  0.67072816     0.03660
C1999       C  0.60111641  0.99667505  0.67467678    -0.12490
C2000       C  0.56525503  0.00948961  0.65898803     0.01160
C2001       C  0.56877056  0.02846399  0.62352643    -0.11020
C2002       C  0.58368732  0.52806202  0.61721148     0.03650
C2003       C  0.61538735  0.50376812  0.62964995    -0.10440
H2004       H  0.60190536  0.99006568  0.70571249     0.09250
H2005       H  0.54267842  0.04399205  0.61383548     0.06780
H2006       H  0.63717263  0.49187648  0.60822583     0.06620
Zn2007     Zn  0.74200643  0.48454553  0.69456072     1.49720
Zn2008     Zn  0.74946875  0.55679813  0.76016939     1.49360
Zn2009     Zn  0.68353135  0.49287567  0.76925756     1.49110
Zn2010     Zn  0.78836327  0.97006865  0.76187812     1.49480
O2011       O  0.73808324  0.50063493  0.75102062    -1.83590
O2012       O  0.75910964  0.53150177  0.66472245    -0.74230
O2013       O  0.70308437  0.58264328  0.78918919    -0.74050
O2014       O  0.66826268  0.96124520  0.70456208    -0.73560
O2015       O  0.75405260  0.58403558  0.70700751    -0.74240
O2016       O  0.70316027  0.97711311  0.65146926    -0.73840
O2017       O  0.65281032  0.54600554  0.77017949    -0.74420
O2018       O  0.76353629  0.93882319  0.80458163    -0.73810
O2019       O  0.79918954  0.56499516  0.79424771    -0.74570
O2020       O  0.70200894  0.96341684  0.80449470    -0.73960
O2021       O  0.81687746  0.50409389  0.80889697    -0.74430
O2022       O  0.82051217  0.93368605  0.72483303    -0.74340
O2023       O  0.80230046  0.94347407  0.66302490    -0.74130
C2024       C  0.75813769  0.56910434  0.67163781     0.77660
C2025       C  0.66783136  0.57986959  0.77683152     0.78150
C2026       C  0.67001019  0.97146998  0.66843764     0.77110
C2027       C  0.73003391  0.94478439  0.82141144     0.77490
C2028       C  0.82200238  0.54135594  0.81186555     0.78630
C2029       C  0.82434369  0.92575129  0.68757005     0.77680
C2030       C  0.86554686  0.75745723  0.94188362     0.03660
C2031       C  0.89807776  0.74334644  0.96360172    -0.12490
C2032       C  0.93231781  0.73037155  0.94233739     0.01160
C2033       C  0.94081560  0.75368672  0.91073797    -0.11020
C2034       C  0.90969465  0.75800467  0.88449404     0.03650
C2035       C  0.87091966  0.76193988  0.90044329    -0.10440
H2036       H  0.89348897  0.73367162  0.99342820     0.09250
H2037       H  0.97082110  0.75419645  0.89912574     0.06780
H2038       H  0.84629990  0.76860545  0.88167627     0.06620
C2039       C  0.85712654  0.55700237  0.83331857     0.03660
C2040       C  0.87712999  0.58976481  0.81853790    -0.12490
C2041       C  0.91395432  0.60025052  0.83448769     0.01160
C2042       C  0.93339213  0.57004886  0.85286216    -0.11020
C2043       C  0.90998867  0.55338522  0.88192143     0.03650
C2044       C  0.88690681  0.03390127  0.84646549    -0.10440
H2045       H  0.86204137  0.60962145  0.79952828     0.09250
H2046       H  0.96441955  0.57431741  0.85892635     0.06780
H2047       H  0.87139881  0.01037565  0.86041421     0.06620
C2048       C  0.78821131  0.65902092  0.61467776     0.03660
C2049       C  0.76156538  0.63653583  0.63771399    -0.12490
C2050       C  0.76722386  0.59463337  0.63793549     0.01160
C2051       C  0.79299687  0.57732955  0.60939455    -0.11020
C2052       C  0.82712817  0.59830097  0.60332859     0.03650
C2053       C  0.82389785  0.63981756  0.60213030    -0.10440
H2054       H  0.73773070  0.65102863  0.65490227     0.09250
H2055       H  0.79557125  0.54528770  0.60656519     0.06780
H2056       H  0.84891546  0.65661525  0.59220615     0.06620
C2057       C  0.45557980  0.64298881  0.66848010     0.03660
C2058       C  0.95838467  0.61927745  0.67466953    -0.12490
C2059       C  0.95285897  0.58466229  0.65052258     0.01160
C2060       C  0.96078449  0.58664374  0.60978089    -0.11020
C2061       C  0.45576611  0.61061817  0.60134419     0.03650
C2062       C  0.45790555  0.64539385  0.62634117    -0.10440
H2063       H  0.95649366  0.61778310  0.70664684     0.09250
H2064       H  0.96177690  0.55961109  0.59094058     0.06780
H2065       H  0.46118468  0.67371401  0.61321641     0.06620
Zn2066     Zn  0.00235101  0.76676265  0.71342602     1.49720
Zn2067     Zn  0.96848338  0.71239905  0.77330154     1.49360
Zn2068     Zn  0.54507586  0.77832203  0.76133132     1.49110
Zn2069     Zn  0.96779264  0.80869546  0.79276086     1.49480
O2070       O  0.48975838  0.76640342  0.75833780    -1.83590
O2071       O  0.99122825  0.71675440  0.68040610    -0.74230
O2072       O  0.53257947  0.68278594  0.77662476    -0.74050
O2073       O  0.56742408  0.78157013  0.70634297    -0.73560
O2074       O  0.94476629  0.69294816  0.71956471    -0.74240
O2075       O  0.51226607  0.78766164  0.67185934    -0.73840
O2076       O  0.57378350  0.73322426  0.78202192    -0.74420
O2077       O  0.00222430  0.84335028  0.82847174    -0.73810
O2078       O  0.93309428  0.72494939  0.82423148    -0.74570
O2079       O  0.55678801  0.83104744  0.79232840    -0.73960
O2080       O  0.92882088  0.79126947  0.83027631    -0.74430
O2081       O  0.93538032  0.83828808  0.75599631    -0.74340
O2082       O  0.96055135  0.80591487  0.70216662    -0.74130
C2083       C  0.96484344  0.69130238  0.68672680     0.77660
C2084       C  0.56752903  0.69634186  0.77618363     0.78150
C2085       C  0.54976911  0.78869720  0.67449232     0.77110
C2086       C  0.53305423  0.85877624  0.80480806     0.77490
C2087       C  0.92127597  0.75759803  0.84260404     0.78630
C2088       C  0.93527283  0.83000639  0.71899368     0.77680
C2089       C  0.71972239  0.90659191  0.92728082     0.03660
C2090       C  0.72494850  0.90448676  0.88499294    -0.12490
C2091       C  0.72759902  0.94036673  0.86494394     0.01160
C2092       C  0.72733767  0.97609300  0.88778145    -0.11020
C2093       C  0.70734024  0.97724388  0.92428872     0.03650
C2094       C  0.71469789  0.94451379  0.94692235    -0.10440
H2095       H  0.72679677  0.87618137  0.86842325     0.09250
H2096       H  0.73060169  0.00333070  0.87263350     0.06780
H2097       H  0.70641943  0.94716380  0.97814553     0.06620
C2098       C  0.03831561  0.85202330  0.88873592     0.03660
C2099       C  0.01571722  0.88497219  0.90424591    -0.12490
C2100       C  0.02250233  0.89921632  0.94364782     0.01160
C2101       C  0.55802267  0.97617290  0.83285642    -0.11020
C2102       C  0.59151891  0.95305196  0.82418197     0.03650
C2103       C  0.58422435  0.91310165  0.81180934    -0.10440
H2104       H  0.99464213  0.89974912  0.88606110     0.09250
H2105       H  0.56170268  0.00800904  0.83646487     0.06780
H2106       H  0.60733722  0.89481881  0.79749981     0.06620
Zn2107     Zn  0.52138487  0.98763846  0.49006011     1.49720
Zn2108     Zn  0.94452219  0.55014934  0.48422207     1.49360
Zn2109     Zn  0.53000581  0.58437474  0.51855529     1.49110
Zn2110     Zn  0.49903612  0.56427616  0.93188850     1.49480
O2111       O  0.50337136  0.54047214  0.49013725    -1.83590
O2112       O  0.96681150  0.95424159  0.49103828    -0.74230
O2113       O  0.93554469  0.59305193  0.53123391    -0.74050
O2114       O  0.55866672  0.56422049  0.56516702    -0.73560
O2115       O  0.91530274  0.98657779  0.51726837    -0.74240
O2116       O  0.56814462  0.98866888  0.53197555    -0.73840
O2117       O  0.48875191  0.62223814  0.54100844    -0.74420
O2118       O  0.54742602  0.60161684  0.92410785    -0.73810
O2119       O  0.91151140  0.54346795  0.95341437    -0.74570
O2120       O  0.57042361  0.61299521  0.48632254    -0.73960
O2121       O  0.94908454  0.58902630  0.92985838    -0.74430
O2122       O  0.51340569  0.01598423  0.89419611    -0.74340
O2123       O  0.53708444  0.96763221  0.92983386    -0.74130
C2124       C  0.93126380  0.95444454  0.50365278     0.77660
C2125       C  0.95911814  0.61882596  0.54743856     0.78150
C2126       C  0.58271644  0.01768732  0.55321292     0.77110
C2127       C  0.56940540  0.61930299  0.94990623     0.77490
C2128       C  0.92299632  0.56249686  0.92397510     0.78630
C2129       C  0.52523189  0.98075651  0.89681703     0.77680
C2130       C  0.60225979  0.67174040  0.76237317     0.03660
C2131       C  0.61168227  0.63276921  0.77387700    -0.12490
C2132       C  0.64934756  0.61627208  0.76212828     0.01160
C2133       C  0.67509444  0.63956470  0.74014527    -0.11020
C2134       C  0.67023823  0.68046672  0.74428925     0.03650
C2135       C  0.63093351  0.69188697  0.74029605    -0.10440
H2136       H  0.59184865  0.61717227  0.79290944     0.09250
H2137       H  0.70420597  0.62847373  0.73237726     0.06780
H2138       H  0.62534086  0.72205015  0.73237159     0.06620
C2139       C  0.61639261  0.63329861  0.43710901     0.03660
C2140       C  0.61951203  0.64183688  0.89832729    -0.12490
C2141       C  0.65692145  0.65834479  0.89032658     0.01160
C2142       C  0.67842920  0.67501264  0.92102962    -0.11020
C2143       C  0.67335229  0.67478766  0.45434814     0.03650
C2144       C  0.63816813  0.65618793  0.46572070    -0.10440
H2145       H  0.60301956  0.62765746  0.87432099     0.09250
H2146       H  0.70763827  0.68615942  0.91426334     0.06780
H2147       H  0.62777672  0.65984248  0.49626920     0.06620
Zn2148     Zn  0.80460819  0.76621415  0.54596151     1.49720
Zn2149     Zn  0.71614400  0.74511263  0.55517883     1.49360
Zn2150     Zn  0.73889158  0.83479885  0.53905877     1.49110
Zn2151     Zn  0.74087434  0.78635764  0.96770007     1.49480
O2152       O  0.75293177  0.77896544  0.52727652    -1.83590
O2153       O  0.80503925  0.72128947  0.58661055    -0.74230
O2154       O  0.67724643  0.77950790  0.58633054    -0.74050
O2155       O  0.78954328  0.86703691  0.53658892    -0.73560
O2156       O  0.74179731  0.70521138  0.59036086    -0.74240
O2157       O  0.82954465  0.82038098  0.55750388    -0.73840
O2158       O  0.69703946  0.84213390  0.58413548    -0.74420
O2159       O  0.72959285  0.83709486  0.93840863    -0.73810
O2160       O  0.68737984  0.71043260  0.51544477    -0.74570
O2161       O  0.71197524  0.87786418  0.98956604    -0.73960
O2162       O  0.70229770  0.74195067  0.95910665    -0.74430
O2163       O  0.79527726  0.76954557  0.94467983    -0.74340
O2164       O  0.82823276  0.76897679  0.00062700    -0.74130
C2165       C  0.77778789  0.69823224  0.59822701     0.77660
C2166       C  0.67263486  0.81628340  0.59586540     0.78150
C2167       C  0.82418256  0.85297523  0.54043130     0.77110
C2168       C  0.71947847  0.87152800  0.95251464     0.77490
C2169       C  0.67794571  0.72095494  0.97832500     0.78630
C2170       C  0.82749731  0.76547137  0.96308482     0.77680
C2171       C  0.85478572  0.89437520  0.67469388     0.03660
C2172       C  0.87921413  0.87821413  0.70402690    -0.12490
C2173       C  0.90426395  0.84560777  0.69393395     0.01160
C2174       C  0.90129013  0.82653908  0.65693470    -0.11020
C2175       C  0.88593003  0.84617193  0.62618989     0.03650
C2176       C  0.86152796  0.88032806  0.63454179    -0.10440
H2177       H  0.87912987  0.89096150  0.73421714     0.09250
H2178       H  0.91815952  0.79952288  0.64982922     0.06780
H2179       H  0.84869195  0.89581279  0.61053130     0.06620
C2180       C  0.90767458  0.92889614  0.03555934     0.03660
C2181       C  0.93013472  0.88427308  0.47967502    -0.12490
C2182       C  0.92056598  0.84583934  0.48837322     0.01160
C2183       C  0.88016448  0.84002256  0.49460872    -0.11020
C2184       C  0.85479775  0.87997271  0.04078819     0.03650
C2185       C  0.86661980  0.92021435  0.04067324    -0.10440
H2186       H  0.95927778  0.88843333  0.46690881     0.09250
H2187       H  0.86973551  0.81008078  0.49318641     0.06780
H2188       H  0.84491449  0.94365686  0.04556330     0.06620
C2189       C  0.93923332  0.86220161  0.57995843    -0.25790
C2190       C  0.90816361  0.83673044  0.58882847    -0.13860
C2191       C  0.90916578  0.79805431  0.56897097     0.36770
C2192       C  0.93185781  0.79244006  0.53359904    -0.25230
C2193       C  0.94753756  0.82630948  0.51703092    -0.14470
C2194       C  0.96286237  0.85333234  0.54609868     0.37850
N2195       N  0.99737360  0.87583778  0.53810524    -0.88720
H2196       H  0.94557526  0.88775790  0.59950578     0.18970
H2197       H  0.92767365  0.76579610  0.51487203     0.18960
N2198       N  0.88606633  0.76549782  0.58171037    -0.87750
H2199       H  0.01801261  0.86996062  0.55980840     0.36340
H2200       H  0.99002086  0.90588302  0.54189966     0.41440
H2201       H  0.86811385  0.77366676  0.60629388     0.41060
H2202       H  0.90567831  0.74357956  0.59032619     0.35940
C2203       C  0.66785717  0.72489427  0.80516900    -0.25790
C2204       C  0.69165959  0.70032736  0.77915271    -0.13860
C2205       C  0.71882689  0.67645741  0.79906116     0.36770
C2206       C  0.70567037  0.65983880  0.83418667    -0.25230
C2207       C  0.66928028  0.67252789  0.85166692    -0.14470
C2208       C  0.65377596  0.70909515  0.84033058     0.37850
N2209       N  0.62554137  0.73070329  0.86546135    -0.88720
H2210       H  0.65305228  0.75066851  0.79440898     0.18970
H2211       H  0.72361610  0.63775772  0.84783665     0.18960
N2212       N  0.75680880  0.66564322  0.78197165    -0.87750
H2213       H  0.59982745  0.73507875  0.84957473     0.36340
H2214       H  0.63735631  0.75843841  0.87324687     0.41440
H2215       H  0.76034166  0.67857167  0.75466453     0.41060
H2216       H  0.75788903  0.63499206  0.77635527     0.35940
C2217       C  0.63625995  0.00198791  0.85759403    -0.25790
C2218       C  0.62134689  0.96299279  0.85506583    -0.13860
C2219       C  0.62180706  0.94148954  0.89012471     0.36790
C2220       C  0.63835361  0.95845940  0.92462752    -0.25230
C2221       C  0.66485148  0.98978290  0.92122131    -0.14470
C2222       C  0.65581869  0.01650953  0.89173659     0.37850
N2223       N  0.67048004  0.05622123  0.89378005    -0.88720
H2224       H  0.63169650  0.02140391  0.83349543     0.18970
H2225       H  0.63884692  0.94096069  0.95062500     0.18960
N2226       N  0.60523722  0.90275863  0.89129474    -0.87750
H2227       H  0.69000778  0.05937005  0.86985134     0.36340
H2228       H  0.68641601  0.06134967  0.91988361     0.41440
H2229       H  0.58360183  0.90323988  0.91380358     0.41060
H2230       H  0.62765973  0.88314100  0.89882563     0.35940
C2231       C  0.86377552  0.59051361  0.66475501    -0.25790
C2232       C  0.86049718  0.58061565  0.62363646    -0.13860
C2233       C  0.88029505  0.54547512  0.60867226     0.36770
C2234       C  0.90985339  0.52911066  0.63224507    -0.25230
C2235       C  0.92430513  0.55384734  0.66368826    -0.14470
C2236       C  0.89316424  0.57182845  0.68604355     0.37850
N2237       N  0.89506838  0.57675531  0.72823374    -0.88720
H2238       H  0.84304312  0.61089153  0.68013454     0.18970
H2239       H  0.92784325  0.50467188  0.61984723     0.18960
N2240       N  0.87178858  0.52652822  0.57079818    -0.87750
H2241       H  0.86962566  0.56394749  0.73960001     0.36340
H2242       H  0.89374524  0.60709581  0.73600775     0.41440
H2243       H  0.85189379  0.54312197  0.55495058     0.41060
H2244       H  0.85784671  0.50012079  0.57678334     0.35940
C2245       C  0.89670585  0.66939118  0.92271075    -0.25790
C2246       C  0.93359214  0.68770301  0.92745231    -0.13860
C2247       C  0.96489998  0.67435020  0.90132070     0.36770
C2248       C  0.95631698  0.65131799  0.86677599    -0.25230
C2249       C  0.91769239  0.63781536  0.85917363    -0.14470
C2250       C  0.88752662  0.64811316  0.88765483     0.37850
N2251       N  0.84741591  0.63604322  0.88204718    -0.88720
H2252       H  0.87262898  0.67609280  0.94361778     0.18970
H2253       H  0.98051890  0.64135484  0.84713640     0.18960
N2254       N  0.00521375  0.68522933  0.90845583    -0.87750
H2255       H  0.82945126  0.66143947  0.88283898     0.36340
H2256       H  0.83900291  0.61915583  0.90578690     0.41440
H2257       H  0.00736851  0.70245533  0.93503803     0.41060
H2258       H  0.01500839  0.70217291  0.88528984     0.35940
C2259       C  0.51858823  0.96633873  0.62468341    -0.25790
C2260       C  0.53017803  0.98257558  0.66231676    -0.13860
C2261       C  0.53425024  0.95382083  0.69057234     0.36770
C2262       C  0.55324145  0.91818028  0.67767418    -0.25230
C2263       C  0.56027576  0.91015124  0.63652617    -0.14470
C2264       C  0.53931148  0.93245668  0.60972980     0.37850
N2265       N  0.53875664  0.92099764  0.56827197    -0.88720
H2266       H  0.50447109  0.98487351  0.60370319     0.18970
H2267       H  0.56270860  0.89746426  0.69915590     0.18960
N2268       N  0.52736364  0.96384924  0.73188827    -0.87750
H2269       H  0.52855393  0.89201460  0.56552477     0.36340
H2270       H  0.56799339  0.92011394  0.55773723     0.41440
H2271       H  0.55398537  0.96047531  0.74669527     0.41060
H2272       H  0.50762277  0.94323653  0.74261267     0.35940
loop_ 
_geom_bond_atom_site_label_1 
_geom_bond_atom_site_label_2 
_geom_bond_distance 
_geom_bond_site_symmetry_2 
_ccdc_geom_bond_type 
C1            C2   1.422       .  A
C1            C6   1.421       .  A
C1          C178   1.501       .  S
C2            C3   1.408       .  A
C2            H7   1.083       .  S
C3            C4   1.368       .  A
C3           C97   1.448       .  S
C4            C5   1.373       .  A
C4            H8   1.088       .  S
C5            C6   1.414       .  A
C5          C275   1.464       .  S
C6            H9   1.083       .  S
C10          C15   1.434       .  A
C10         C579   1.406       .  A
C10         C606   1.502   1_545  S
C11          C12   1.402       .  A
C11         C578   1.411       .  A
C11          H16   1.082       .  S
C12          C13   1.387       .  A
C12         C272   1.506       .  S
C13         C582   1.407       .  A
C13          H17   1.083       .  S
C14          C15   1.434       .  A
C14         C581   1.408       .  A
C14         C706   1.491       .  S
C15          H18   1.082       .  S
Zn19         O23   1.952   1_565  S
Zn19         O24   1.992   1_565  S
Zn19        O596   2.024       .  S
Zn19        O603   2.109       .  S
Zn20         O23   1.957       .  S
Zn20         O25   2.012       .  S
Zn20         O27   2.061       .  S
Zn20         O31   2.093       .  S
Zn21         O23   1.960   1_565  S
Zn21         O29   2.044   1_565  S
Zn21        O594   2.038       .  S
Zn21        O600   2.100       .  S
Zn22        O591   1.950       .  S
Zn22         O30   1.991       .  S
Zn22         O34   2.041       .  S
Zn22        O601   2.015       .  S
O23        Zn590   1.952   1_545  S
O24          C36   1.279       .  A
O25          C37   1.276       .  A
O26        Zn589   2.025       .  S
O26          C38   1.279       .  A
O27          C36   1.275       .  A
O28        Zn587   2.039       .  S
O28          C38   1.272       .  A
O29          C37   1.268       .  A
O30          C39   1.271       .  A
O31          C40   1.284       .  A
O32        Zn589   2.100       .  S
O32          C39   1.288       .  A
O33        Zn590   2.021   1_545  S
O33          C40   1.273       .  A
O34          C41   1.279       .  A
O35        Zn587   2.112       .  S
O35          C41   1.285       .  A
C36          C62   1.491       .  S
C37         C144   1.487       .  S
C38         C578   1.501       .  S
C39         C103   1.476       .  S
C40          C51   1.491       .  S
C41         C183   1.510       .  S
C42          C43   1.418       .  A
C42          C47   1.416       .  A
C42         C182   1.466       .  S
C43          C44   1.410       .  A
C43          H48   1.083       .  S
C44          C45   1.396       .  A
C44         C258   1.505       .  S
C45          C46   1.400       .  A
C45          H49   1.082       .  S
C46          C47   1.401       .  A
C46          C99   1.463       .  S
C47          H50   1.083       .  S
C51          C52   1.417       .  A
C51         C624   1.435       .  A
C52          C53   1.413       .  A
C52          H57   1.082       .  S
C53          C54   1.388       .  A
C53         C261   1.488       .  S
C54          C55   1.396       .  A
C54          H58   1.083       .  S
C55         C624   1.422       .  A
C55         C140   1.505       .  S
C56         C619   1.434       .  A
C56         C623   1.422       .  A
C56          H59   1.082       .  S
C60          C61   1.427       .  A
C60          C65   1.417       .  A
C60         C177   1.501       .  S
C61          C62   1.422       .  A
C61          H66   1.083       .  S
C62          C63   1.393       .  A
C63          C64   1.382       .  A
C63          H67   1.085       .  S
C64          C65   1.415       .  A
C64         C244   1.475       .  S
C65          H68   1.083       .  S
C69          C74   1.421       .  A
C69        C1206   1.403       .  A
C69        C1231   1.485       .  S
C70          C71   1.406       .  A
C70        C1205   1.407       .  A
C70          H75   1.081       .  S
C71          C72   1.395       .  A
C71         C247   1.510       .  S
C72        C1209   1.393       .  A
C72          H76   1.083       .  S
C73          C74   1.409       .  A
C73        C1208   1.393       .  A
C73        C1273   1.480       .  S
C74          H77   1.083       .  S
Zn78       O1218   1.897       .  S
Zn78         O83   2.014       .  S
Zn78         O94   2.018       .  S
Zn78       O1223   2.035       .  S
Zn79       O1218   1.895       .  S
Zn79         O86   2.009       .  S
Zn79         O90   2.028       .  S
Zn79       O1220   2.022       .  S
Zn80         O82   1.873   1_455  S
Zn80         O85   1.997       .  S
Zn80         O88   1.956       .  S
Zn80         O91   2.026       .  S
Zn81       O1218   1.960       .  S
Zn81         O89   1.954       .  S
Zn81         O92   1.954       .  S
Zn81         O93   1.960       .  S
O82       Zn1214   1.863       .  S
O82       Zn1215   1.940       .  S
O82       Zn1217   1.996       .  S
O83          C95   1.274       .  A
O84       Zn1215   2.073   1_455  S
O84          C96   1.271       .  A
O85          C97   1.272       .  A
O86          C95   1.282       .  A
O87       Zn1214   1.985   1_455  S
O87          C97   1.273       .  A
O88          C96   1.269       .  A
O89        C1234   1.266       .  A
O90          C99   1.280       .  A
O91          C98   1.282   1_455  A
O92          C99   1.259       .  A
O93         C100   1.262       .  A
O94         C100   1.282       .  A
C95        C1205   1.475       .  S
C96         C142   1.489       .  S
C98        C1246   1.488   1_655  S
C98        O1225   1.271       .  A
C100        C185   1.470       .  S
C101        C102   1.425       .  A
C101        C106   1.412       .  A
C101        C180   1.503       .  S
C102        C103   1.431       .  A
C102        H107   1.082       .  S
C103        C104   1.405       .  A
C104        C105   1.402       .  A
C104        H108   1.082       .  S
C105        C106   1.390       .  A
C105        C233   1.506       .  S
C106        H109   1.083       .  S
C110        C111   1.423       .  A
C110       C1251   1.409       .  A
C110       C1234   1.463       .  S
C111        C112   1.420       .  A
C111        H116   1.082       .  S
C112       C1249   1.401       .  A
C112       C1277   1.487       .  S
C113        C114   1.397       .  A
C113       C1248   1.401       .  A
C113        H117   1.084       .  S
C114        C115   1.387       .  A
C114        C230   1.465       .  S
C115       C1246   1.398       .  A
C115        H118   1.087       .  S
Zn119       O691   1.919       .  S
Zn119       O128   2.117   1_556  S
Zn119      O1260   2.027   1_456  S
Zn119       O419   2.053       .  S
Zn120      O1259   1.998       .  S
Zn120       O125   2.051   1_556  S
Zn120       O695   2.066   1_546  S
Zn120       O415   2.078       .  S
Zn121       O123   1.964   1_454  S
Zn121       O126   2.056       .  S
Zn121       O129   1.987   1_455  S
Zn121       O132   1.996   1_554  S
Zn122       O407   1.920       .  S
Zn122       O130   2.081   1_655  S
Zn122      O1269   1.958       .  S
Zn122       O702   1.966   1_655  S
O123       Zn687   1.921   1_646  S
O123      Zn1256   1.972       .  S
O123       Zn406   1.936   1_655  S
O124      Zn1255   2.012       .  S
O124        C136   1.274   1_556  A
O125        C137   1.289       .  A
O126        C706   1.275       .  A
O127       Zn688   2.056   1_554  S
O127        C136   1.266       .  A
O128        C138   1.286       .  A
O129       C1273   1.269       .  A
O130        C139   1.279       .  A
O131       Zn404   2.093       .  S
O131        C140   1.270       .  A
O132        C423   1.273       .  A
O133      Zn1258   1.960       .  S
O133        C140   1.275       .  A
O134       Zn690   2.061       .  S
O134        C141   1.277       .  A
O135       Zn403   2.004       .  S
O135        C141   1.272       .  A
C136        C476   1.500   1_554  S
C137       C1209   1.466       .  S
C137       O1265   1.270       .  A
C138        C582   1.484       .  S
C138        O694   1.268       .  A
C139        C435   1.501       .  S
C139        O416   1.272       .  A
C141       C1248   1.479       .  S
C142        C143   1.429       .  A
C142        C147   1.419       .  A
C143        C144   1.428       .  A
C143        H148   1.082       .  S
C144        C145   1.409       .  A
C145        C146   1.391       .  A
C145        H149   1.077       .  S
C146        C147   1.394       .  A
C146        C216   1.520       .  S
C147        H150   1.085       .  S
C151        C156   1.431       .  A
C151        C436   1.415       .  A
C151        C423   1.505       .  S
C152        C153   1.413       .  A
C152        C435   1.418       .  A
C152        H157   1.083       .  S
C153        C154   1.377       .  A
C153        C219   1.477       .  S
C154        C439   1.388       .  A
C154        H158   1.083       .  S
C155        C156   1.414       .  A
C155        C438   1.387       .  A
C155        C465   1.485       .  S
C156        H159   1.083   1_556  S
Zn160       O164   1.948       .  S
Zn160       O165   2.089       .  S
Zn160       O169   2.069       .  S
Zn160       O460   2.010       .  S
Zn161       O164   1.977       .  S
Zn161       O166   2.042       .  S
Zn161       O168   2.038       .  S
Zn161       O172   2.025       .  S
Zn162       O164   1.955       .  S
Zn162       O167   2.061       .  S
Zn162       O170   2.083       .  S
Zn162       O457   1.985   1_554  S
Zn163       O448   1.885       .  S
Zn163       O171   1.947       .  S
Zn163       O174   1.965       .  S
Zn163       O175   1.973       .  S
O164       Zn447   1.974   1_554  S
O165        C177   1.283       .  A
O166        C178   1.279       .  A
O167        C179   1.274       .  A
O168        C177   1.274       .  A
O169        C179   1.287       .  A
O170        C178   1.285       .  A
O171        C180   1.267       .  A
O172        C465   1.273   1_554  A
O173       Zn446   2.124       .  S
O173        C180   1.281       .  A
O174        C181   1.274       .  A
O175        C182   1.263       .  A
O176       Zn444   1.993       .  S
O176        C182   1.263       .  A
C179        C480   1.504       .  S
C181        C439   1.480       .  S
C181        O456   1.268       .  A
C183        C184   1.421       .  A
C183        C188   1.423       .  A
C184        C185   1.410       .  A
C184        H189   1.083       .  S
C185        C186   1.378       .  A
C186        C187   1.374       .  A
C186        H190   1.084       .  S
C187        C188   1.422       .  A
C187        C202   1.472       .  S
C188        H191   1.081       .  S
C192        C197   1.440       .  A
C192        C477   1.407       .  A
C192        C420   1.499       .  S
C193        C194   1.390       .  A
C193        C476   1.411       .  A
C193        H198   1.082       .  S
C194        C195   1.399       .  A
C194        C205   1.522   1_556  S
C195        C480   1.406   1_556  A
C195        H199   1.071       .  S
C196        C197   1.431       .  A
C196        C479   1.394       .  A
C196        C463   1.515       .  S
C197        H200   1.079       .  S
C201        C202   1.409       .  A
C201        C206   1.408       .  A
C201        H208   1.079       .  S
C202        C203   1.435       .  A
C203        C204   1.411       .  A
C203        N210   1.439       .  S
C204        C205   1.406       .  A
C204        H209   1.083       .  S
C205        C206   1.413       .  A
C206        N207   1.436       .  S
N207        H211   1.046       .  S
N207        H212   1.043   1_554  S
N210        H213   1.042       .  S
N210        H214   1.045       .  S
C215        C216   1.410       .  A
C215        C220   1.410       .  A
C215        H222   1.081       .  S
C216        C217   1.414       .  A
C217        C218   1.403       .  A
C217        N224   1.435       .  S
C218        C219   1.414       .  A
C218        H223   1.084       .  S
C219        C220   1.412       .  A
C220        N221   1.439       .  S
N221        H225   1.045       .  S
N221        H226   1.043       .  S
N224        H227   1.046       .  S
N224        H228   1.045       .  S
C229        C230   1.409       .  A
C229        C234   1.386       .  A
C229        H236   1.082       .  S
C230        C231   1.396       .  A
C231        C232   1.403       .  A
C231        N238   1.436       .  S
C232        C233   1.422       .  A
C232        H237   1.082       .  S
C233        C234   1.409       .  A
C234        N235   1.436       .  S
N235        H239   1.045       .  S
N235        H240   1.046       .  S
N238        H241   1.046       .  S
N238        H242   1.043       .  S
C243        C244   1.416       .  A
C243        C248   1.398       .  A
C243        H250   1.083       .  S
C244        C245   1.426       .  A
C245        C246   1.415       .  A
C245        N252   1.436       .  S
C246        C247   1.414       .  A
C246        H251   1.084       .  S
C247        C248   1.399       .  A
C248        N249   1.427       .  S
N249        H253   1.044       .  S
N249        H254   1.045       .  S
N252        H255   1.044       .  S
N252        H256   1.045       .  S
C257        C258   1.406       .  A
C257        C262   1.392       .  A
C257        H264   1.083       .  S
C258        C259   1.419       .  A
C259        C260   1.405       .  A
C259        N266   1.435       .  S
C260        C261   1.414       .  A
C260        H265   1.084       .  S
C261        C262   1.417       .  A
C262        N263   1.433       .  S
N263        H267   1.046       .  S
N263        H268   1.046       .  S
N266        H269   1.046       .  S
N266        H270   1.044       .  S
C271        C272   1.415       .  A
C271        C276   1.402       .  A
C271        H278   1.084       .  S
C272        C273   1.402       .  A
C273        C274   1.403       .  A
C273        N280   1.430       .  S
C274        C275   1.419       .  A
C274        H279   1.084       .  S
C275        C276   1.410       .  A
C276        N277   1.432       .  S
N277        H281   1.044       .  S
N277        H282   1.045       .  S
N280        H283   1.046       .  S
N280        H284   1.045   1_455  S
C285        C286   1.428       .  A
C285        C290   1.410       .  A
C285        C462   1.501       .  S
C286        C287   1.410       .  A
C286        H291   1.083       .  S
C287        C288   1.374       .  A
C287        C381   1.464       .  S
C288        C289   1.380       .  A
C288        H292   1.087       .  S
C289        C290   1.413       .  A
C289        C559   1.459       .  S
C290        H293   1.083       .  S
C294        C863   1.398       .  A
C294        C299   1.425       .  A
C294        C890   1.503       .  S
C295        C862   1.406       .  A
C295        C296   1.403       .  A
C295        H300   1.081       .  S
C296        C297   1.399       .  A
C296        C556   1.512       .  S
C297        C866   1.408       .  A
C297        H301   1.078       .  S
C298        C865   1.404       .  A
C298        C299   1.425       .  A
C298        C990   1.477   1_565  S
C299        H302   1.082       .  S
Zn303       O307   1.960   1_565  S
Zn303       O308   2.033   1_565  S
Zn303       O880   2.045       .  S
Zn303       O887   2.140       .  S
Zn304       O307   1.936       .  S
Zn304       O309   1.975       .  S
Zn304       O311   2.068       .  S
Zn304       O315   2.070       .  S
Zn305       O307   1.953       .  S
Zn305       O878   2.031   1_545  S
Zn305       O313   2.058       .  S
Zn305       O884   2.119   1_545  S
Zn306       O875   1.946       .  S
Zn306       O314   1.967       .  S
Zn306       O885   2.010       .  S
Zn306       O318   1.972       .  S
O307       Zn874   1.948   1_545  S
O308        C320   1.283       .  A
O309        C321   1.270       .  A
O310       Zn873   2.047       .  S
O310        C322   1.286       .  A
O311        C320   1.276       .  A
O312       Zn871   2.014       .  S
O312        C322   1.267       .  A
O313        C321   1.267       .  A
O314        C323   1.264       .  A
O315        C324   1.283       .  A
O316       Zn873   2.124       .  S
O316        C323   1.292       .  A
O317       Zn874   2.012   1_545  S
O317        C324   1.268       .  A
O318        C325   1.269       .  A
O319       Zn871   2.112       .  S
O319        C325   1.288       .  A
C320        C346   1.501       .  S
C321        C428   1.482       .  S
C322        C862   1.501       .  S
C323        C387   1.480       .  S
C324        C335   1.486       .  S
C325        C467   1.495       .  S
C326        C327   1.419       .  A
C326        C331   1.426       .  A
C326        C466   1.487       .  S
C327        C328   1.412       .  A
C327        H332   1.083       .  S
C328        C329   1.389       .  A
C328        C542   1.502       .  S
C329        C330   1.390       .  A
C329        H333   1.081       .  S
C330        C331   1.422       .  A
C330        C383   1.477       .  S
C331        H334   1.083       .  S
C335        C336   1.408       .  A
C335        C908   1.434       .  A
C336        C337   1.403       .  A
C336        H341   1.073       .  S
C337        C338   1.391       .  A
C337        C545   1.498       .  S
C338        C339   1.398       .  A
C338        H342   1.083       .  S
C339        C908   1.423       .  A
C339        C424   1.498       .  S
C340        C903   1.433       .  A
C340        C907   1.420       .  A
C340        H343   1.082       .  S
C344        C345   1.434       .  A
C344        C349   1.417       .  A
C344        C461   1.498       .  S
C345        C346   1.430       .  A
C345        H350   1.082       .  S
C346        C347   1.398       .  A
C347        C348   1.389       .  A
C347        H351   1.083       .  S
C348        C349   1.410       .  A
C348        C528   1.489       .  S
C349        H352   1.083       .  S
C353       C1490   1.410       .  A
C353        C358   1.427       .  A
C353       C1515   1.484       .  S
C354       C1489   1.407       .  A
C354        C355   1.403       .  A
C354        H359   1.075       .  S
C355        C356   1.398       .  A
C355        C531   1.500       .  S
C356       C1493   1.397       .  A
C356        H360   1.084       .  S
C357       C1492   1.396       .  A
C357        C358   1.409       .  A
C357       C1557   1.481       .  S
C358        H361   1.083       .  S
Zn362      O1502   1.884       .  S
Zn362       O367   1.958       .  S
Zn362      O1507   1.969       .  S
Zn362       O378   2.006       .  S
Zn363      O1502   1.929       .  S
Zn363      O1504   2.091       .  S
Zn363       O370   2.059       .  S
Zn363       O374   2.099       .  S
Zn364       O366   1.931   1_455  S
Zn364       O369   2.003       .  S
Zn364       O372   1.927       .  S
Zn364       O375   2.033       .  S
Zn365      O1502   1.966       .  S
Zn365       O373   1.979       .  S
Zn365       O376   1.963       .  S
Zn365       O377   2.003       .  S
O366      Zn1498   1.911       .  S
O366      Zn1499   1.964       .  S
O366      Zn1501   1.978       .  S
O367        C379   1.264       .  A
O368      Zn1499   2.094   1_455  S
O368        C380   1.280       .  A
O369        C381   1.267       .  A
O370        C379   1.284       .  A
O371      Zn1498   2.002   1_455  S
O371        C381   1.272       .  A
O372        C380   1.266       .  A
O373       C1518   1.273       .  A
O374        C383   1.294       .  A
O375        C382   1.276       .  A
O376        C383   1.262       .  A
O377        C384   1.267       .  A
O378        C384   1.279       .  A
C379       C1489   1.482       .  S
C380        C426   1.488       .  S
C382       C1530   1.478       .  S
C382       O1509   1.274   1_455  A
C384        C469   1.479       .  S
C385        C386   1.429       .  A
C385        C390   1.418       .  A
C385        C464   1.500       .  S
C386        C387   1.424       .  A
C386        H391   1.082       .  S
C387        C388   1.391       .  A
C388        C389   1.392       .  A
C388        H392   1.084       .  S
C389        C390   1.399       .  A
C389        C517   1.498       .  S
C390        H393   1.083       .  S
C394        C395   1.415       .  A
C394       C1535   1.419       .  A
C394       C1518   1.478       .  S
C395        C396   1.400       .  A
C395        H400   1.083       .  S
C396       C1533   1.387       .  A
C396       C1561   1.461       .  S
C397       C1532   1.388       .  A
C397        C398   1.388       .  A
C397        H401   1.085       .  S
C398        C399   1.415       .  A
C398        C514   1.494       .  S
C399       C1530   1.419       .  A
C399        H402   1.083       .  S
Zn403       O975   1.934       .  S
Zn403      O1544   2.059   1_455  S
Zn403       O412   2.082       .  S
Zn404      O1543   2.013       .  S
Zn404       O409   2.068       .  S
Zn404       O979   2.065   1_545  S
Zn405       O407   1.952   1_455  S
Zn405       O410   1.991       .  S
Zn405       O413   1.995   1_455  S
Zn405       O416   2.025       .  S
Zn406       O414   2.139       .  S
Zn406      O1553   2.011   1_455  S
Zn406       O986   2.049   1_545  S
O407       Zn971   1.900   1_645  S
O407      Zn1540   2.006       .  S
O408      Zn1539   2.039       .  S
O408        C420   1.279       .  A
O409        C421   1.290       .  A
O410        C990   1.270       .  A
O411       Zn972   2.069       .  S
O411        C420   1.271       .  A
O412        C422   1.274       .  A
O413       C1557   1.272       .  A
O414        C423   1.292       .  A
O415        C424   1.268       .  A
O417      Zn1542   1.977       .  S
O417        C424   1.276       .  A
O418       Zn974   1.941       .  S
O418        C425   1.262       .  A
O419        C425   1.284       .  A
C421       C1493   1.476       .  S
C421       O1549   1.273       .  A
C422        C866   1.494       .  S
C422        O978   1.275       .  A
C425       C1532   1.458       .  S
C426        C427   1.427       .  A
C426        C431   1.423       .  A
C427        C428   1.424       .  A
C427        H432   1.082       .  S
C428        C429   1.408       .  A
C429        C430   1.389       .  A
C429        H433   1.082       .  S
C430        C431   1.394       .  A
C430        C500   1.512       .  S
C431        H434   1.083       .  S
C435        C440   1.423       .  A
C436        C437   1.416       .  A
C436        H441   1.083       .  S
C437        C438   1.383       .  A
C437        C503   1.471       .  S
C438        H442   1.087       .  S
C439        C440   1.411       .  A
C440        H443   1.083       .  S
Zn444       O448   1.916       .  S
Zn444       O449   2.088       .  S
Zn444       O453   2.042       .  S
Zn445       O448   1.979       .  S
Zn445       O450   1.959       .  S
Zn445       O452   2.026       .  S
Zn445       O456   2.024       .  S
Zn446       O448   2.020       .  S
Zn446       O451   2.100       .  S
Zn446       O454   2.168       .  S
Zn447       O455   2.093       .  S
Zn447       O458   2.048       .  S
Zn447       O459   2.075       .  S
O449        C461   1.282       .  A
O450        C462   1.272       .  A
O451        C463   1.278       .  A
O452        C461   1.269       .  A
O453        C463   1.288       .  A
O454        C462   1.298       .  A
O455        C464   1.277       .  A
O457        C464   1.273       .  A
O458        C465   1.288       .  A
O459        C466   1.276       .  A
O460        C466   1.270   1_554  A
C467        C468   1.424       .  A
C467        C472   1.410       .  A
C468        C469   1.411       .  A
C468        H473   1.083       .  S
C469        C470   1.391       .  A
C470        C471   1.384       .  A
C470        H474   1.083       .  S
C471        C472   1.420       .  A
C471        C486   1.486       .  S
C472        H475   1.082       .  S
C476        C481   1.435   1_556  A
C477        C478   1.388       .  A
C477        H482   1.078       .  S
C478        C479   1.392       .  A
C478        C489   1.492       .  S
C479        H483   1.071       .  S
C480        C481   1.432       .  A
C481        H484   1.080       .  S
C485        C486   1.406       .  A
C485        C490   1.389       .  A
C485        H492   1.083       .  S
C486        C487   1.427       .  A
C487        C488   1.412       .  A
C487        N494   1.434       .  S
C488        C489   1.409       .  A
C488        H493   1.083       .  S
C489        C490   1.407       .  A
C490        N491   1.427       .  S
N491        H495   1.045       .  S
N491        H496   1.046       .  S
N494        H497   1.040       .  S
N494        H498   1.045       .  S
C499        C500   1.407       .  A
C499        C504   1.395       .  A
C499        H506   1.084       .  S
C500        C501   1.418       .  A
C501        C502   1.405       .  A
C501        N508   1.435       .  S
C502        C503   1.408       .  A
C502        H507   1.084       .  S
C503        C504   1.414       .  A
C504        N505   1.434       .  S
N505        H509   1.046       .  S
N505        H510   1.046       .  S
N508        H511   1.046       .  S
N508        H512   1.044       .  S
C513        C514   1.418       .  A
C513        C518   1.407       .  A
C513        H520   1.083       .  S
C514        C515   1.425       .  A
C515        C516   1.401       .  A
C515        N522   1.432       .  S
C516        C517   1.401       .  A
C516        H521   1.084       .  S
C517        C518   1.413       .  A
C518        N519   1.435       .  S
N519        H523   1.045       .  S
N519        H524   1.046       .  S
N522        H525   1.045       .  S
N522        H526   1.046       .  S
C527        C528   1.408       .  A
C527        C532   1.384       .  A
C527        H534   1.081       .  S
C528        C529   1.423       .  A
C529        C530   1.406       .  A
C529        N536   1.437       .  S
C530        C531   1.413       .  A
C530        H535   1.084       .  S
C531        C532   1.410       .  A
C532        N533   1.432       .  S
N533        H537   1.046       .  S
N533        H538   1.046       .  S
N536        H539   1.044       .  S
N536        H540   1.046   1_545  S
C541        C542   1.410       .  A
C541        C546   1.391       .  A
C541        H548   1.081       .  S
C542        C543   1.425       .  A
C543        C544   1.404       .  A
C543        N550   1.435       .  S
C544        C545   1.410       .  A
C544        H549   1.084       .  S
C545        C546   1.411       .  A
C546        N547   1.431       .  S
N547        H551   1.045       .  S
N547        H552   1.046       .  S
N550        H553   1.044       .  S
N550        H554   1.046       .  S
C555        C556   1.420       .  A
C555        C560   1.404       .  A
C555        H562   1.081       .  S
C556        C557   1.408       .  A
C557        C558   1.400       .  A
C557        N564   1.432       .  S
C558        C559   1.412       .  A
C558        H563   1.084       .  S
C559        C560   1.394       .  A
C560        N561   1.432       .  S
N561        H565   1.043       .  S
N561        H566   1.046       .  S
N564        H567   1.045       .  S
N564        H568   1.045       .  S
C569        C570   1.425       .  A
C569        C574   1.411       .  A
C569        C746   1.491       .  S
C570        C571   1.412       .  A
C570        H575   1.083       .  S
C571        C572   1.382       .  A
C571        C665   1.474       .  S
C572        C573   1.381       .  A
C572        H576   1.084       .  S
C573        C574   1.409       .  A
C573        C843   1.462       .  S
C574        H577   1.083       .  S
C578        C583   1.430       .  A
C579        C580   1.402       .  A
C579        H584   1.081       .  S
C580        C581   1.398       .  A
C580        C840   1.512   1_545  S
C581        H585   1.079       .  S
C582        C583   1.426       .  A
C583        H586   1.082       .  S
Zn587       O591   1.972       .  S
Zn587       O592   1.963       .  S
Zn588       O591   1.963       .  S
Zn588       O593   2.006       .  S
Zn588       O595   2.089       .  S
Zn588       O599   2.089       .  S
Zn589       O591   1.975       .  S
Zn589       O597   2.087       .  S
Zn590       O598   1.984       .  S
Zn590       O602   1.981       .  S
O592        C604   1.272       .  A
O593        C605   1.272       .  A
O594        C606   1.284       .  A
O595        C604   1.276       .  A
O596        C606   1.268       .  A
O597        C605   1.273       .  A
O598        C607   1.265       .  A
O599        C608   1.283       .  A
O600        C607   1.291       .  A
O601        C608   1.270       .  A
O602        C609   1.271       .  A
O603        C609   1.288       .  A
C604        C630   1.495       .  S
C605        C712   1.494       .  S
C607        C671   1.479       .  S
C608        C619   1.494       .  S
C609        C751   1.494       .  S
C610        C611   1.421       .  A
C610        C615   1.415       .  A
C610        C750   1.482       .  S
C611        C612   1.405       .  A
C611        H616   1.083       .  S
C612        C613   1.392       .  A
C612        C826   1.499       .  S
C613        C614   1.391       .  A
C613        H617   1.081       .  S
C614        C615   1.412       .  A
C614        C667   1.462       .  S
C615        H618   1.083       .  S
C619        C620   1.417       .  A
C620        C621   1.411       .  A
C620        H625   1.081       .  S
C621        C622   1.391       .  A
C621        C829   1.500       .  S
C622        C623   1.393       .  A
C622        H626   1.083       .  S
C623        C708   1.494       .  S
C624        H627   1.082       .  S
C628        C629   1.429       .  A
C628        C633   1.420       .  A
C628        C745   1.490       .  S
C629        C630   1.423       .  A
C629        H634   1.082       .  S
C630        C631   1.400       .  A
C631        C632   1.386       .  A
C631        H635   1.083       .  S
C632        C633   1.412       .  A
C632        C812   1.491       .  S
C633        H636   1.083       .  S
C637       C1774   1.403       .  A
C637        C642   1.425       .  A
C637       C1799   1.484       .  S
C638       C1773   1.408       .  A
C638        C639   1.404       .  A
C638        H643   1.083       .  S
C639        C640   1.401       .  A
C639        C815   1.499       .  S
C640       C1777   1.396       .  A
C640        H644   1.084       .  S
C641       C1776   1.395       .  A
C641        C642   1.412       .  A
C641       C1841   1.477       .  S
C642        H645   1.083       .  S
Zn646      O1786   1.883       .  S
Zn646       O651   1.974       .  S
Zn646      O1791   1.973       .  S
Zn646       O662   2.013       .  S
Zn647      O1786   1.931       .  S
Zn647      O1788   2.065       .  S
Zn647       O654   2.045       .  S
Zn647       O658   2.082       .  S
Zn648       O650   1.940       .  S
Zn648       O653   2.040       .  S
Zn648       O656   2.000       .  S
Zn648       O659   2.074       .  S
Zn649      O1786   1.957       .  S
Zn649       O657   1.991       .  S
Zn649       O660   1.946       .  S
Zn649       O661   2.002       .  S
O650      Zn1782   1.893   1_455  S
O650      Zn1783   1.927   1_455  S
O650      Zn1785   1.966   1_455  S
O651        C663   1.267       .  A
O652      Zn1783   2.048   1_455  S
O652        C664   1.271       .  A
O653        C665   1.272       .  A
O654        C663   1.283       .  A
O655      Zn1782   1.980   1_455  S
O655        C665   1.274       .  A
O656        C664   1.278       .  A
O657       C1802   1.272       .  A
O658        C667   1.291       .  A
O659        C666   1.281       .  A
O660        C667   1.263       .  A
O661        C668   1.266       .  A
O662        C668   1.280       .  A
C663       C1773   1.482       .  S
C664        C710   1.488       .  S
C666       C1814   1.482       .  S
C666       O1793   1.273   1_455  A
C668        C753   1.479       .  S
C669        C670   1.427       .  A
C669        C674   1.415       .  A
C669        C748   1.494       .  S
C670        C671   1.420       .  A
C670        H675   1.082       .  S
C671        C672   1.390       .  A
C672        C673   1.395       .  A
C672        H676   1.083   1_565  S
C673        C674   1.402       .  A
C673        C801   1.500       .  S
C674        H677   1.083       .  S
C678        C679   1.417       .  A
C678       C1819   1.419       .  A
C678       C1802   1.477       .  S
C679        C680   1.404       .  A
C679        H684   1.083       .  S
C680       C1817   1.389       .  A
C680       C1845   1.465       .  S
C681       C1816   1.386       .  A
C681        C682   1.391       .  A
C681        H685   1.085   1_565  S
C682        C683   1.419       .  A
C682        C798   1.495       .  S
C683       C1814   1.418       .  A
C683        H686   1.083       .  S
Zn687      O1828   2.026   1_455  S
Zn687       O696   2.064   1_565  S
Zn687       O987   1.945   1_554  S
Zn688      O1827   2.008       .  S
Zn688       O693   2.074   1_556  S
Zn688       O983   2.084       .  S
Zn689       O691   1.965   1_554  S
Zn689       O694   1.995       .  S
Zn689       O697   2.005       .  S
Zn689       O700   2.042   1_554  S
Zn690       O975   1.952       .  S
Zn690       O698   2.151       .  S
Zn690      O1837   2.004   1_455  S
O691      Zn1824   2.017   1_456  S
O691       Zn974   1.927       .  S
O692      Zn1823   2.018   1_554  S
O692        C704   1.276       .  A
O693        C705   1.290       .  A
O695        C704   1.272       .  A
O696        C706   1.273       .  A
O697       C1841   1.275   1_455  A
O698        C707   1.291       .  A
O699       Zn972   2.092       .  S
O699        C708   1.285       .  A
O700        C991   1.272       .  A
O701      Zn1826   2.012       .  S
O701        C708   1.274       .  A
O702        C709   1.264   1_545  A
O703       Zn971   2.029       .  S
O703        C709   1.281       .  A
C704       C1044   1.498       .  S
C705       C1777   1.476       .  S
C705       O1833   1.272       .  A
C707       C1003   1.509       .  S
C707        O984   1.271       .  A
C709       C1816   1.461       .  S
C710        C711   1.431       .  A
C710        C715   1.414       .  A
C711        C712   1.429       .  A
C711        H716   1.082       .  S
C712        C713   1.411       .  A
C713        C714   1.391       .  A
C713        H717   1.074       .  S
C714        C715   1.393       .  A
C714        C784   1.519       .  S
C715        H718   1.084       .  S
C719       C1004   1.422       .  A
C719        C724   1.427       .  A
C719        C991   1.515       .  S
C720       C1003   1.419       .  A
C720        C721   1.417       .  A
C720        H725   1.083       .  S
C721        C722   1.376       .  A
C721        C787   1.471       .  S
C722       C1007   1.385       .  A
C722        H726   1.086       .  S
C723       C1006   1.383       .  A
C723        C724   1.419       .  A
C723       C1033   1.481       .  S
C724        H727   1.083       .  S
Zn728       O732   1.900       .  S
Zn728       O733   2.035       .  S
Zn728       O737   1.980       .  S
Zn728      O1028   1.957   1_554  S
Zn729       O732   1.958       .  S
Zn729       O734   1.969       .  S
Zn729       O736   2.047       .  S
Zn729       O740   2.009       .  S
Zn730       O732   1.961       .  S
Zn730       O735   2.116       .  S
Zn730       O738   2.140       .  S
Zn730      O1025   2.023   1_554  S
Zn731      O1016   1.936       .  S
Zn731       O739   2.072       .  S
Zn731       O742   2.009       .  S
Zn731       O743   2.067       .  S
O732      Zn1015   1.958   1_554  S
O733        C745   1.273       .  A
O734        C746   1.273       .  A
O735        C747   1.282       .  A
O736        C745   1.271       .  A
O737        C747   1.276       .  A
O738        C746   1.295       .  A
O739        C748   1.277       .  A
O740       C1033   1.272   1_554  A
O741      Zn1014   1.994       .  S
O741        C748   1.276       .  A
O742        C749   1.284       .  A
O743        C750   1.275       .  A
O744      Zn1012   1.952       .  S
O744        C750   1.264       .  A
C747       C1048   1.511       .  S
C749       C1007   1.483       .  S
C749       O1024   1.275       .  A
C751        C752   1.424       .  A
C751        C756   1.414       .  A
C752        C753   1.408       .  A
C752        H757   1.083       .  S
C753        C754   1.386       .  A
C754        C755   1.388       .  A
C754        H758   1.081       .  S
C755        C756   1.419       .  A
C755        C770   1.491       .  S
C756        H759   1.083       .  S
C760       C1045   1.413       .  A
C760        C765   1.447       .  A
C760        C988   1.509       .  S
C761       C1044   1.416       .  A
C761        C762   1.390       .  A
C761        H766   1.076       .  S
C762        C763   1.389       .  A
C762        C773   1.501       .  S
C763       C1048   1.408       .  A
C763        H767   1.082       .  S
C764       C1047   1.402       .  A
C764        C765   1.438       .  A
C764       C1031   1.518       .  S
C765        H768   1.082       .  S
C769        C770   1.405       .  A
C769        C774   1.393       .  A
C769        H776   1.083       .  S
C770        C771   1.427       .  A
C771        C772   1.405       .  A
C771        N778   1.433       .  S
C772        C773   1.408       .  A
C772        H777   1.084       .  S
C773        C774   1.412       .  A
C774        N775   1.428       .  S
N775        H779   1.045       .  S
N775        H780   1.046       .  S
N778        H781   1.041       .  S
N778        H782   1.046       .  S
C783        C784   1.408       .  A
C783        C788   1.408       .  A
C783        H790   1.083       .  S
C784        C785   1.416       .  A
C785        C786   1.406       .  A
C785        N792   1.435       .  S
C786        C787   1.409       .  A
C786        H791   1.083       .  S
C787        C788   1.420       .  A
C788        N789   1.439       .  S
N789        H793   1.045       .  S
N789        H794   1.044       .  S
N792        H795   1.046       .  S
N792        H796   1.044       .  S
C797        C798   1.420   1_545  A
C797        C802   1.406       .  A
C797        H804   1.083       .  S
C798        C799   1.424       .  A
C799        C800   1.402       .  A
C799        N806   1.432       .  S
C800        C801   1.402       .  A
C800        H805   1.084       .  S
C801        C802   1.412   1_565  A
C802        N803   1.435       .  S
N803        H807   1.045       .  S
N803        H808   1.046       .  S
N806        H809   1.045       .  S
N806        H810   1.046       .  S
C811        C812   1.411       .  A
C811        C816   1.389       .  A
C811        H818   1.082       .  S
C812        C813   1.428       .  A
C813        C814   1.411       .  A
C813        N820   1.434       .  S
C814        C815   1.410       .  A
C814        H819   1.084       .  S
C815        C816   1.405       .  A
C816        N817   1.430       .  S
N817        H821   1.044       .  S
N817        H822   1.046       .  S
N820        H823   1.044       .  S
N820        H824   1.045       .  S
C825        C826   1.406       .  A
C825        C830   1.395       .  A
C825        H832   1.083       .  S
C826        C827   1.415       .  A
C827        C828   1.398       .  A
C827        N834   1.437       .  S
C828        C829   1.414       .  A
C828        H833   1.084       .  S
C829        C830   1.421       .  A
C830        N831   1.433       .  S
N831        H835   1.046       .  S
N831        H836   1.046       .  S
N834        H837   1.046       .  S
N834        H838   1.045       .  S
C839        C840   1.417       .  A
C839        C844   1.404       .  A
C839        H846   1.082       .  S
C840        C841   1.405       .  A
C841        C842   1.398       .  A
C841        N848   1.430       .  S
C842        C843   1.411       .  A
C842        H847   1.084       .  S
C843        C844   1.400       .  A
C844        N845   1.433       .  S
N845        H849   1.045       .  S
N845        H850   1.046       .  S
N848        H851   1.044       .  S
N848        H852   1.045       .  S
C853        C854   1.419       .  A
C853        C858   1.413       .  A
C853       C1030   1.493       .  S
C854        C855   1.407       .  A
C854        H859   1.083       .  S
C855        C856   1.384       .  A
C855        C949   1.458       .  S
C856        C857   1.384       .  A
C856        H860   1.087       .  S
C857        C858   1.415       .  A
C857       C1127   1.483       .  S
C858        H861   1.083       .  S
C862        C867   1.433       .  A
C863        C864   1.401       .  A
C863        H868   1.080   1_565  S
C864        C865   1.400       .  A
C864       C1124   1.506       .  S
C865        H869   1.085       .  S
C866        C867   1.432       .  A
C867        H870   1.082       .  S
Zn871       O875   1.950       .  S
Zn871       O876   2.014       .  S
Zn872       O875   1.946       .  S
Zn872       O877   2.013       .  S
Zn872       O879   2.084       .  S
Zn872       O883   2.079       .  S
Zn873       O875   1.968       .  S
Zn873       O881   2.049       .  S
Zn874       O882   1.976       .  S
Zn874       O886   1.961       .  S
O876        C888   1.283       .  A
O877        C889   1.274       .  A
O878        C890   1.285       .  A
O879        C888   1.274       .  A
O880        C890   1.273       .  A
O881        C889   1.269       .  A
O882        C891   1.265       .  A
O883        C892   1.282       .  A
O884        C891   1.291       .  A
O885        C892   1.271       .  A
O886        C893   1.269       .  A
O887        C893   1.291       .  A
C888        C914   1.504       .  S
C889        C996   1.484       .  S
C891        C955   1.486       .  S
C892        C903   1.483       .  S
C893       C1035   1.497       .  S
C894        C895   1.423       .  A
C894        C899   1.414       .  A
C894       C1034   1.477       .  S
C895        C896   1.408       .  A
C895        H900   1.083       .  S
C896        C897   1.392       .  A
C896       C1110   1.510       .  S
C897        C898   1.394       .  A
C897        H901   1.081       .  S
C898        C899   1.412       .  A
C898        C951   1.455       .  S
C899        H902   1.083       .  S
C903        C904   1.413       .  A
C904        C905   1.408       .  A
C904        H909   1.081       .  S
C905        C906   1.393       .  A
C905       C1113   1.489       .  S
C906        C907   1.396       .  A
C906        H910   1.084       .  S
C907        C992   1.504       .  S
C908        H911   1.082       .  S
C912        C913   1.433       .  A
C912        C917   1.414       .  A
C912       C1029   1.502       .  S
C913        C914   1.431       .  A
C913        H918   1.082       .  S
C914        C915   1.396       .  A
C915        C916   1.384       .  A
C915        H919   1.084       .  S
C916        C917   1.409       .  A
C916       C1096   1.476       .  S
C917        H920   1.083       .  S
C921       C2058   1.402       .  A
C921        C926   1.427       .  A
C921       C2083   1.490       .  S
C922       C2057   1.405       .  A
C922        C923   1.409       .  A
C922        H927   1.082       .  S
C923        C924   1.399       .  A
C923       C1099   1.503       .  S
C924       C2061   1.391       .  A
C924        H928   1.084       .  S
C925       C2060   1.392       .  A
C925        C926   1.421       .  A
C925       C2125   1.489       .  S
C926        H929   1.083       .  S
Zn930      O2070   1.875       .  S
Zn930       O935   1.969       .  S
Zn930      O2075   1.952       .  S
Zn930       O946   2.000       .  S
Zn931      O2070   1.938       .  S
Zn931      O2072   2.067       .  S
Zn931       O938   2.083       .  S
Zn931       O942   2.091       .  S
Zn932       O934   1.903   1_455  S
Zn932       O937   2.005       .  S
Zn932       O940   2.013       .  S
Zn932       O943   2.007       .  S
Zn933      O2070   1.960       .  S
Zn933       O941   1.975       .  S
Zn933       O944   1.911       .  S
Zn933       O945   1.990       .  S
O934      Zn2066   1.886   1_655  S
O934      Zn2067   1.912       .  S
O934      Zn2069   1.972       .  S
O935        C947   1.263       .  A
O936      Zn2067   2.067   1_455  S
O936        C948   1.273       .  A
O937        C949   1.271       .  A
O938        C947   1.285       .  A
O939      Zn2066   1.997       .  S
O939        C949   1.273       .  A
O940        C948   1.270       .  A
O941       C2086   1.270       .  A
O942        C951   1.291       .  A
O943        C950   1.273       .  A
O944        C951   1.258       .  A
O945        C952   1.263       .  A
O946        C952   1.279       .  A
C947       C2057   1.492       .  S
C948        C994   1.480       .  S
C950       C2098   1.476       .  S
C950       O2077   1.275       .  A
C952       C1037   1.475       .  S
C953        C954   1.427       .  A
C953        C958   1.408       .  A
C953       C1032   1.502       .  S
C954        C955   1.432       .  A
C954        H959   1.083       .  S
C955        C956   1.408       .  A
C956        C957   1.405       .  A
C956        H960   1.082   1_565  S
C957        C958   1.398       .  A
C957       C1085   1.512       .  S
C958        H961   1.083       .  S
C962        C963   1.417       .  A
C962       C2103   1.418       .  A
C962       C2086   1.475       .  S
C963        C964   1.401       .  A
C963        H968   1.083       .  S
C964       C2101   1.391       .  A
C964       C2129   1.465       .  S
C965       C2100   1.397       .  A
C965        C966   1.391       .  A
C965        H969   1.082       .  S
C966        C967   1.407       .  A
C966       C1082   1.485       .  S
C967       C2098   1.417       .  A
C967        H970   1.083       .  S
Zn971      O2112   1.973   1_455  S
Zn971       O980   2.089       .  S
Zn972      O2111   1.975       .  S
Zn972       O977   2.085       .  S
Zn973       O975   1.980       .  S
Zn973       O978   2.048       .  S
Zn973       O981   2.001   1_455  S
Zn973       O984   1.991       .  S
Zn974       O982   2.103       .  S
Zn974      O2121   1.963   1_455  S
O975      Zn2108   2.002   1_455  S
O976      Zn2107   2.049       .  S
O976        C988   1.279       .  A
O977        C989   1.291       .  A
O979        C988   1.269       .  A
O980        C990   1.285   1_565  A
O981       C2125   1.267       .  A
O982        C991   1.280       .  A
O983        C992   1.270       .  A
O985      Zn2110   1.950       .  S
O985        C992   1.275       .  A
O986        C993   1.277       .  A
O987        C993   1.265       .  A
C989       C2061   1.484       .  S
C989       O2117   1.270       .  A
C993       C2100   1.472       .  S
C994        C995   1.423       .  A
C994        C999   1.411       .  A
C995        C996   1.422       .  A
C995       H1000   1.082       .  S
C996        C997   1.407       .  A
C997        C998   1.392       .  A
C997       H1001   1.080       .  S
C998        C999   1.400       .  A
C998       C1068   1.521       .  S
C999       H1002   1.083       .  S
C1003      C1008   1.430       .  A
C1004      C1005   1.416       .  A
C1004      H1009   1.082       .  S
C1005      C1006   1.373       .  A
C1005      C1071   1.469       .  S
C1006      H1010   1.086       .  S
C1007      C1008   1.411       .  A
C1008      H1011   1.083       .  S
Zn1012     O1016   1.902       .  S
Zn1012     O1017   2.078       .  S
Zn1012     O1021   2.018       .  S
Zn1013     O1016   1.973       .  S
Zn1013     O1018   2.013       .  S
Zn1013     O1020   2.050       .  S
Zn1013     O1024   2.027       .  S
Zn1014     O1016   1.949       .  S
Zn1014     O1019   2.099       .  S
Zn1014     O1022   2.101       .  S
Zn1015     O1023   2.065       .  S
Zn1015     O1026   2.022       .  S
Zn1015     O1027   2.052       .  S
O1017      C1029   1.278       .  A
O1018      C1030   1.279       .  A
O1019      C1031   1.273       .  A
O1020      C1029   1.271       .  A
O1021      C1031   1.282       .  A
O1022      C1030   1.290       .  A
O1023      C1032   1.274       .  A
O1025      C1032   1.277       .  A
O1026      C1033   1.286       .  A
O1027      C1034   1.269       .  A
O1028      C1034   1.262       .  A
C1035      C1036   1.426       .  A
C1035      C1040   1.415       .  A
C1036      C1037   1.409       .  A
C1036      H1041   1.083       .  S
C1037      C1038   1.386       .  A
C1038      C1039   1.383       .  A
C1038      H1042   1.082       .  S
C1039      C1040   1.425       .  A
C1039      C1054   1.495       .  S
C1040      H1043   1.082       .  S
C1044      C1049   1.442       .  A
C1045      C1046   1.389       .  A
C1045      H1050   1.076       .  S
C1046      C1047   1.392       .  A
C1046      C1057   1.497       .  S
C1047      H1051   1.082       .  S
C1048      C1049   1.434       .  A
C1049      H1052   1.082       .  S
C1053      C1054   1.403       .  A
C1053      C1058   1.392       .  A
C1053      H1060   1.083       .  S
C1054      C1055   1.430       .  A
C1055      C1056   1.408       .  A
C1055      N1062   1.434       .  S
C1056      C1057   1.407       .  A
C1056      H1061   1.084       .  S
C1057      C1058   1.411       .  A
C1058      N1059   1.428       .  S
N1059      H1063   1.045       .  S
N1059      H1064   1.046       .  S
N1062      H1065   1.038       .  S
N1062      H1066   1.046       .  S
C1067      C1068   1.405       .  A
C1067      C1072   1.412       .  A
C1067      H1074   1.077       .  S
C1068      C1069   1.416       .  A
C1069      C1070   1.408       .  A
C1069      N1076   1.432       .  S
C1070      C1071   1.409       .  A
C1070      H1075   1.083       .  S
C1071      C1072   1.416       .  A
C1072      N1073   1.431       .  S
N1073      H1077   1.037       .  S
N1073      H1078   1.045       .  S
N1076      H1079   1.049       .  S
N1076      H1080   1.038       .  S
C1081      C1082   1.412       .  A
C1081      C1086   1.387       .  A
C1081      H1088   1.081       .  S
C1082      C1083   1.411       .  A
C1083      C1084   1.409       .  A
C1083      N1090   1.438   1_556  S
C1084      C1085   1.417       .  A
C1084      H1089   1.083   1_556  S
C1085      C1086   1.409       .  A
C1086      N1087   1.436       .  S
N1087      H1091   1.045       .  S
N1087      H1092   1.044   1_565  S
N1090      H1093   1.043       .  S
N1090      H1094   1.044       .  S
C1095      C1096   1.409       .  A
C1095      C1100   1.390       .  A
C1095      H1102   1.084       .  S
C1096      C1097   1.423       .  A
C1097      C1098   1.413       .  A
C1097      N1104   1.432       .  S
C1098      C1099   1.412       .  A
C1098      H1103   1.084       .  S
C1099      C1100   1.399       .  A
C1100      N1101   1.422       .  S
N1101      H1105   1.044       .  S
N1101      H1106   1.046       .  S
N1104      H1107   1.044       .  S
N1104      H1108   1.044       .  S
C1109      C1110   1.408       .  A
C1109      C1114   1.388       .  A
C1109      H1116   1.082       .  S
C1110      C1111   1.423       .  A
C1111      C1112   1.401       .  A
C1111      N1118   1.436       .  S
C1112      C1113   1.411       .  A
C1112      H1117   1.084       .  S
C1113      C1114   1.417       .  A
C1114      N1115   1.434       .  S
N1115      H1119   1.046       .  S
N1115      H1120   1.046       .  S
N1118      H1121   1.045       .  S
N1118      H1122   1.046       .  S
C1123      C1124   1.404       .  A
C1123      C1128   1.403       .  A
C1123      H1130   1.082       .  S
C1124      C1125   1.409       .  A
C1125      C1126   1.411       .  A
C1125      N1132   1.431       .  S
C1126      C1127   1.418       .  A
C1126      H1131   1.083       .  S
C1127      C1128   1.427       .  A
C1128      N1129   1.432       .  S
N1129      H1133   1.045       .  S
N1129      H1134   1.043       .  S
N1132      H1135   1.045       .  S
N1132      H1136   1.045       .  S
C1137      C1138   1.431       .  A
C1137      C1142   1.417       .  A
C1137      C1314   1.509       .  S
C1138      C1139   1.414       .  A
C1138      H1143   1.083       .  S
C1139      C1140   1.380       .  A
C1139      C1233   1.471       .  S
C1140      C1141   1.380       .  A
C1140      H1144   1.087       .  S
C1141      C1142   1.419       .  A
C1141      C1411   1.481       .  S
C1142      H1145   1.083       .  S
C1146      C1715   1.406   1_565  A
C1146      C1151   1.438       .  A
C1146      C1742   1.503       .  S
C1147      C1714   1.397       .  A
C1147      C1148   1.402       .  A
C1147      H1152   1.081       .  S
C1148      C1149   1.394       .  A
C1148      C1408   1.501       .  S
C1149      C1718   1.401       .  A
C1149      H1153   1.085       .  S
C1150      C1717   1.415       .  A
C1150      C1151   1.433   1_545  A
C1150      C1842   1.508       .  S
C1151      H1154   1.082       .  S
Zn1155     O1159   1.949       .  S
Zn1155     O1160   2.007   1_565  S
Zn1155     O1732   2.022       .  S
Zn1155     O1739   2.115       .  S
Zn1156     O1159   1.962   1_545  S
Zn1156     O1161   2.015       .  S
Zn1156     O1163   2.080       .  S
Zn1156     O1167   2.095       .  S
Zn1157     O1159   1.961       .  S
Zn1157     O1730   2.065       .  S
Zn1157     O1165   2.055   1_565  S
Zn1157     O1736   2.115       .  S
Zn1158     O1727   1.957       .  S
Zn1158     O1166   1.977       .  S
Zn1158     O1737   1.986       .  S
Zn1158     O1170   1.948       .  S
O1159     Zn1726   1.954       .  S
O1160      C1172   1.284       .  A
O1161      C1173   1.274       .  A
O1162     Zn1725   2.053       .  S
O1162      C1174   1.288       .  A
O1163      C1172   1.275       .  A
O1164     Zn1723   2.024       .  S
O1164      C1174   1.268       .  A
O1165      C1173   1.270       .  A
O1166      C1175   1.261       .  A
O1167      C1176   1.284       .  A
O1168     Zn1725   2.104       .  S
O1168      C1175   1.294       .  A
O1169     Zn1726   2.016   1_545  S
O1169      C1176   1.272       .  A
O1170      C1177   1.268       .  A
O1171     Zn1723   2.106       .  S
O1171      C1177   1.285       .  A
C1172      C1198   1.506       .  S
C1173      C1280   1.483       .  S
C1174      C1714   1.502       .  S
C1175      C1239   1.485       .  S
C1176      C1187   1.490       .  S
C1177      C1319   1.487       .  S
C1178      C1179   1.424       .  A
C1178      C1183   1.414       .  A
C1178      C1318   1.477       .  S
C1179      C1180   1.411       .  A
C1179      H1184   1.083       .  S
C1180      C1181   1.392       .  A
C1180      C1394   1.502       .  S
C1181      C1182   1.396       .  A
C1181      H1185   1.083       .  S
C1182      C1183   1.407       .  A
C1182      C1235   1.462       .  S
C1183      H1186   1.083       .  S
C1187      C1188   1.417       .  A
C1187      C1760   1.437       .  A
C1188      C1189   1.411       .  A
C1188      H1193   1.081       .  S
C1189      C1190   1.388       .  A
C1189      C1397   1.492       .  S
C1190      C1191   1.396       .  A
C1190      H1194   1.082       .  S
C1191      C1760   1.423       .  A
C1191      C1276   1.508       .  S
C1192      C1755   1.436       .  A
C1192      C1759   1.428       .  A
C1192      H1195   1.082       .  S
C1196      C1197   1.435       .  A
C1196      C1201   1.415       .  A
C1196      C1313   1.502       .  S
C1197      C1198   1.430       .  A
C1197      H1202   1.082       .  S
C1198      C1199   1.395       .  A
C1199      C1200   1.383       .  A
C1199      H1203   1.083       .  S
C1200      C1201   1.409       .  A
C1200      C1380   1.475       .  S
C1201      H1204   1.083       .  S
C1205      C1210   1.415       .  A
C1206      C1207   1.409       .  A
C1206      H1211   1.082       .  S
C1207      C1208   1.403       .  A
C1207      C1383   1.507       .  S
C1208      H1212   1.081       .  S
C1209      C1210   1.406       .  A
C1210      H1213   1.083       .  S
Zn1214     O1219   1.977       .  S
Zn1214     O1230   2.001       .  S
Zn1215     O1222   2.058       .  S
Zn1215     O1226   2.053       .  S
Zn1216     O1218   1.934       .  S
Zn1216     O1221   2.021       .  S
Zn1216     O1224   2.042       .  S
Zn1216     O1227   2.074       .  S
Zn1217     O1225   2.048       .  S
Zn1217     O1228   1.943       .  S
Zn1217     O1229   1.952       .  S
O1219      C1231   1.266       .  A
O1220      C1232   1.268       .  A
O1221      C1233   1.275       .  A
O1222      C1231   1.285       .  A
O1223      C1233   1.274       .  A
O1224      C1232   1.277       .  A
O1226      C1235   1.285       .  A
O1227      C1234   1.281       .  A
O1228      C1235   1.256       .  A
O1229      C1236   1.265       .  A
O1230      C1236   1.279       .  A
C1232      C1278   1.478       .  S
C1236      C1321   1.465       .  S
C1237      C1238   1.434       .  A
C1237      C1242   1.417       .  A
C1237      C1316   1.496       .  S
C1238      C1239   1.428       .  A
C1238      H1243   1.082       .  S
C1239      C1240   1.390       .  A
C1240      C1241   1.382       .  A
C1240      H1244   1.084       .  S
C1241      C1242   1.408       .  A
C1241      C1369   1.486       .  S
C1242      H1245   1.083       .  S
C1246      C1247   1.423       .  A
C1247      C1248   1.427       .  A
C1247      H1252   1.083   1_455  S
C1249      C1250   1.388       .  A
C1249      H1253   1.075       .  S
C1250      C1251   1.390       .  A
C1250      C1366   1.493       .  S
C1251      H1254   1.085       .  S
Zn1255     O1827   1.920       .  S
Zn1255     O1264   2.097   1_556  S
Zn1255     O1555   2.044       .  S
Zn1256     O1261   2.079   1_556  S
Zn1256     O1831   2.055   1_546  S
Zn1256     O1551   2.084       .  S
Zn1257     O1259   1.931   1_554  S
Zn1257     O1262   1.967       .  S
Zn1257     O1265   1.987       .  S
Zn1257     O1268   2.011   1_554  S
Zn1258     O1543   1.925       .  S
Zn1258     O1266   2.109       .  S
Zn1258     O1838   1.945       .  S
O1259     Zn1823   1.931   1_545  S
O1259     Zn1542   1.905       .  S
O1260      C1272   1.276       .  A
O1261      C1273   1.287       .  A
O1262      C1842   1.272       .  A
O1263     Zn1824   2.078       .  S
O1263      C1272   1.270       .  A
O1264      C1274   1.287       .  A
O1266      C1275   1.281       .  A
O1267     Zn1540   2.102       .  S
O1267      C1276   1.270       .  A
O1268      C1559   1.268       .  A
O1269      C1276   1.274       .  A
O1270     Zn1826   1.996       .  S
O1270      C1277   1.273       .  A
O1271     Zn1539   2.064       .  S
O1271      C1277   1.268       .  A
C1272      C1612   1.505       .  S
C1274      C1718   1.477       .  S
C1274      O1830   1.270       .  A
C1275      C1571   1.516       .  S
C1275      O1552   1.272       .  A
C1278      C1279   1.423       .  A
C1278      C1283   1.406       .  A
C1279      C1280   1.423       .  A
C1279      H1284   1.082       .  S
C1280      C1281   1.409       .  A
C1281      C1282   1.394       .  A
C1281      H1285   1.077       .  S
C1282      C1283   1.396       .  A
C1282      C1352   1.519       .  S
C1283      H1286   1.081       .  S
C1287      C1572   1.418       .  A
C1287      C1292   1.426       .  A
C1287      C1559   1.507       .  S
C1288      C1571   1.423       .  A
C1288      C1289   1.416       .  A
C1288      H1293   1.083       .  S
C1289      C1290   1.372       .  A
C1289      C1355   1.472       .  S
C1290      C1575   1.384       .  A
C1290      H1294   1.086       .  S
C1291      C1574   1.385       .  A
C1291      C1292   1.413       .  A
C1291      C1601   1.480       .  S
C1292      H1295   1.083       .  S
Zn1296     O1300   1.905       .  S
Zn1296     O1301   2.084       .  S
Zn1296     O1305   2.019       .  S
Zn1296     O1596   1.991   1_554  S
Zn1297     O1300   1.970       .  S
Zn1297     O1302   2.005       .  S
Zn1297     O1304   2.053       .  S
Zn1297     O1308   2.017       .  S
Zn1298     O1300   1.964       .  S
Zn1298     O1303   2.146       .  S
Zn1298     O1306   2.163       .  S
Zn1298     O1593   2.017       .  S
Zn1299     O1584   1.946       .  S
Zn1299     O1307   2.075       .  S
Zn1299     O1310   2.009       .  S
Zn1299     O1311   2.040       .  S
O1300     Zn1583   1.951   1_554  S
O1301      C1313   1.279       .  A
O1302      C1314   1.276       .  A
O1303      C1315   1.285       .  A
O1304      C1313   1.272       .  A
O1305      C1315   1.282       .  A
O1306      C1314   1.298       .  A
O1307      C1316   1.276       .  A
O1308      C1601   1.274   1_554  A
O1309     Zn1582   2.030       .  S
O1309      C1316   1.276       .  A
O1310      C1317   1.283       .  A
O1311      C1318   1.274       .  A
O1312     Zn1580   1.970       .  S
O1312      C1318   1.265       .  A
C1315      C1616   1.530       .  S
C1317      C1575   1.483       .  S
C1317      O1592   1.270       .  A
C1319      C1320   1.418       .  A
C1319      C1324   1.415       .  A
C1320      C1321   1.399       .  A
C1320      H1325   1.083       .  S
C1321      C1322   1.385       .  A
C1322      C1323   1.384       .  A
C1322      H1326   1.082       .  S
C1323      C1324   1.426       .  A
C1323      C1338   1.494       .  S
C1324      H1327   1.080       .  S
C1328      C1613   1.410       .  A
C1328      C1333   1.445       .  A
C1328      C1556   1.505       .  S
C1329      C1612   1.412       .  A
C1329      C1330   1.387       .  A
C1329      H1334   1.081       .  S
C1330      C1331   1.394       .  A
C1330      C1341   1.499       .  S
C1331      C1616   1.408       .  A
C1331      H1335   1.082       .  S
C1332      C1615   1.398       .  A
C1332      C1333   1.435       .  A
C1332      C1599   1.518       .  S
C1333      H1336   1.078       .  S
C1337      C1338   1.406       .  A
C1337      C1342   1.393       .  A
C1337      H1344   1.083       .  S
C1338      C1339   1.433       .  A
C1339      C1340   1.407       .  A
C1339      N1346   1.432       .  S
C1340      C1341   1.405       .  A
C1340      H1345   1.084       .  S
C1341      C1342   1.410       .  A
C1342      N1343   1.427       .  S
N1343      H1347   1.045       .  S
N1343      H1348   1.046       .  S
N1346      H1349   1.037       .  S
N1346      H1350   1.045       .  S
C1351      C1352   1.408       .  A
C1351      C1356   1.412       .  A
C1351      H1358   1.079       .  S
C1352      C1353   1.414       .  A
C1353      C1354   1.406       .  A
C1353      N1360   1.434       .  S
C1354      C1355   1.410       .  A
C1354      H1359   1.084       .  S
C1355      C1356   1.420       .  A
C1356      N1357   1.438       .  S
N1357      H1361   1.045       .  S
N1357      H1362   1.045       .  S
N1360      H1363   1.046       .  S
N1360      H1364   1.043       .  S
C1365      C1366   1.410       .  A
C1365      C1370   1.403       .  A
C1365      H1372   1.083       .  S
C1366      C1367   1.404       .  A
C1367      C1368   1.386       .  A
C1367      N1374   1.432       .  S
C1368      C1369   1.412       .  A
C1368      H1373   1.081       .  S
C1369      C1370   1.423       .  A
C1370      N1371   1.435       .  S
N1371      H1375   1.046       .  S
N1371      H1376   1.044       .  S
N1374      H1377   1.046       .  S
N1374      H1378   1.045       .  S
C1379      C1380   1.414       .  A
C1379      C1384   1.396       .  A
C1379      H1386   1.083       .  S
C1380      C1381   1.415       .  A
C1381      C1382   1.413       .  A
C1381      N1388   1.429       .  S
C1382      C1383   1.413       .  A
C1382      H1387   1.081   1_545  S
C1383      C1384   1.400       .  A
C1384      N1385   1.427       .  S
N1385      H1389   1.044       .  S
N1385      H1390   1.045       .  S
N1388      H1391   1.045       .  S
N1388      H1392   1.043       .  S
C1393      C1394   1.407       .  A
C1393      C1398   1.392       .  A
C1393      H1400   1.082       .  S
C1394      C1395   1.421       .  A
C1395      C1396   1.404       .  A
C1395      N1402   1.437   1_655  S
C1396      C1397   1.415       .  A
C1396      H1401   1.084       .  S
C1397      C1398   1.417       .  A
C1398      N1399   1.433       .  S
N1399      H1403   1.046       .  S
N1399      H1404   1.046       .  S
N1402      H1405   1.045       .  S
N1402      H1406   1.046       .  S
C1407      C1408   1.403       .  A
C1407      C1412   1.405       .  A
C1407      H1414   1.078       .  S
C1408      C1409   1.405       .  A
C1409      C1410   1.409       .  A
C1409      N1416   1.433       .  S
C1410      C1411   1.419       .  A
C1410      H1415   1.079       .  S
C1411      C1412   1.427       .  A
C1412      N1413   1.439       .  S
N1413      H1417   1.043       .  S
N1413      H1418   1.041       .  S
N1416      H1419   1.046       .  S
N1416      H1420   1.043       .  S
C1421      C1422   1.423       .  A
C1421      C1426   1.412       .  A
C1421      C1598   1.492       .  S
C1422      C1423   1.406       .  A
C1422      H1427   1.083       .  S
C1423      C1424   1.375       .  A
C1423      C1517   1.456       .  S
C1424      C1425   1.375       .  A
C1424      H1428   1.087       .  S
C1425      C1426   1.410       .  A
C1425      C1695   1.457       .  S
C1426      H1429   1.083       .  S
C1430      C1999   1.409       .  A
C1430      C1435   1.433       .  A
C1430      C2026   1.498       .  S
C1431      C1998   1.407       .  A
C1431      C1432   1.406       .  A
C1431      H1436   1.082       .  S
C1432      C1433   1.395       .  A
C1432      C1692   1.510       .  S
C1433      C2002   1.408       .  A
C1433      H1437   1.083       .  S
C1434      C2001   1.409       .  A
C1434      C1435   1.425   1_545  A
C1434      C2126   1.491       .  S
C1435      H1438   1.082       .  S
Zn1439     O1443   1.971   1_565  S
Zn1439     O1444   2.018   1_565  S
Zn1439     O2016   2.034       .  S
Zn1439     O2023   2.145       .  S
Zn1440     O1443   1.973       .  S
Zn1440     O1445   2.039       .  S
Zn1440     O1447   2.084       .  S
Zn1440     O1451   2.092       .  S
Zn1441     O1443   1.961   1_565  S
Zn1441     O2014   2.037       .  S
Zn1441     O1449   2.091   1_565  S
Zn1441     O2020   2.100       .  S
Zn1442     O2011   1.961       .  S
Zn1442     O1450   1.985       .  S
Zn1442     O2021   2.031       .  S
Zn1442     O1454   1.988       .  S
O1443     Zn2010   1.964   1_545  S
O1444      C1456   1.281       .  A
O1445      C1457   1.275       .  A
O1446     Zn2009   2.041       .  S
O1446      C1458   1.284       .  A
O1447      C1456   1.276       .  A
O1448     Zn2007   2.013       .  S
O1448      C1458   1.268       .  A
O1449      C1457   1.272       .  A
O1450      C1459   1.265       .  A
O1451      C1460   1.284       .  A
O1452     Zn2009   2.107       .  S
O1452      C1459   1.292       .  A
O1453     Zn2010   2.018   1_545  S
O1453      C1460   1.272       .  A
O1454      C1461   1.272       .  A
O1455     Zn2007   2.105       .  S
O1455      C1461   1.287       .  A
C1456      C1482   1.504       .  S
C1457      C1564   1.499       .  S
C1458      C1998   1.496       .  S
C1459      C1523   1.482       .  S
C1460      C1471   1.494       .  S
C1461      C1603   1.495       .  S
C1462      C1463   1.419       .  A
C1462      C1467   1.427       .  A
C1462      C1602   1.498       .  S
C1463      C1464   1.404       .  A
C1463      H1468   1.083       .  S
C1464      C1465   1.393       .  A
C1464      C1678   1.503       .  S
C1465      C1466   1.393       .  A
C1465      H1469   1.081       .  S
C1466      C1467   1.427       .  A
C1466      C1519   1.482       .  S
C1467      H1470   1.083       .  S
C1471      C1472   1.415       .  A
C1471      C2044   1.432       .  A
C1472      C1473   1.412       .  A
C1472      H1477   1.081       .  S
C1473      C1474   1.391       .  A
C1473      C1681   1.495       .  S
C1474      C1475   1.390       .  A
C1474      H1478   1.083       .  S
C1475      C2044   1.422       .  A
C1475      C1560   1.493       .  S
C1476      C2039   1.436       .  A
C1476      C2043   1.424       .  A
C1476      H1479   1.082       .  S
C1480      C1481   1.436       .  A
C1480      C1485   1.419       .  A
C1480      C1597   1.504       .  S
C1481      C1482   1.431       .  A
C1481      H1486   1.082       .  S
C1482      C1483   1.395       .  A
C1483      C1484   1.386       .  A
C1483      H1487   1.082       .  S
C1484      C1485   1.414       .  A
C1484      C1664   1.491       .  S
C1485      H1488   1.083       .  S
C1489      C1494   1.425       .  A
C1490      C1491   1.407       .  A
C1490      H1495   1.083       .  S
C1491      C1492   1.401       .  A
C1491      C1667   1.503       .  S
C1492      H1496   1.084       .  S
C1493      C1494   1.408       .  A
C1494      H1497   1.083       .  S
Zn1498     O1503   1.966       .  S
Zn1498     O1514   1.988       .  S
Zn1499     O1506   2.071       .  S
Zn1499     O1510   2.114       .  S
Zn1500     O1502   1.930       .  S
Zn1500     O1505   2.009       .  S
Zn1500     O1508   1.987       .  S
Zn1500     O1511   2.065       .  S
Zn1501     O1509   2.004       .  S
Zn1501     O1512   1.978       .  S
Zn1501     O1513   1.999       .  S
O1503      C1515   1.265       .  A
O1504      C1516   1.275       .  A
O1505      C1517   1.269       .  A
O1506      C1515   1.282       .  A
O1507      C1517   1.273       .  A
O1508      C1516   1.276       .  A
O1510      C1519   1.293       .  A
O1511      C1518   1.280       .  A
O1512      C1519   1.265       .  A
O1513      C1520   1.267       .  A
O1514      C1520   1.277       .  A
C1516      C1562   1.503       .  S
C1520      C1605   1.475       .  S
C1521      C1522   1.427       .  A
C1521      C1526   1.412       .  A
C1521      C1600   1.491       .  S
C1522      C1523   1.419       .  A
C1522      H1527   1.083       .  S
C1523      C1524   1.389       .  A
C1524      C1525   1.397       .  A
C1524      H1528   1.083       .  S
C1525      C1526   1.403       .  A
C1525      C1653   1.497       .  S
C1526      H1529   1.084       .  S
C1530      C1531   1.414       .  A
C1531      C1532   1.401       .  A
C1531      H1536   1.083   1_455  S
C1533      C1534   1.390       .  A
C1533      H1537   1.084       .  S
C1534      C1535   1.419       .  A
C1534      C1650   1.498       .  S
C1535      H1538   1.083       .  S
Zn1539     O2111   1.969       .  S
Zn1539     O1548   2.100       .  S
Zn1540     O1545   2.082       .  S
Zn1540     O2115   2.057   1_545  S
Zn1541     O1543   1.966       .  S
Zn1541     O1546   1.968       .  S
Zn1541     O1549   1.999       .  S
Zn1541     O1552   2.044       .  S
Zn1542     O1550   2.110       .  S
Zn1542     O2122   1.913       .  S
O1543     Zn2107   1.929   1_545  S
O1544      C1556   1.281       .  A
O1545      C1557   1.291       .  A
O1546      C2126   1.267       .  A
O1547     Zn2108   2.078       .  S
O1547      C1556   1.273       .  A
O1548      C1558   1.282       .  A
O1550      C1559   1.281       .  A
O1551      C1560   1.282       .  A
O1553      C1560   1.277       .  A
O1554     Zn2110   1.946       .  S
O1554      C1561   1.264       .  A
O1555      C1561   1.282       .  A
C1558      C2002   1.488       .  S
C1558      O2114   1.273       .  A
C1562      C1563   1.438       .  A
C1562      C1567   1.415       .  A
C1563      C1564   1.438       .  A
C1563      H1568   1.082       .  S
C1564      C1565   1.410       .  A
C1565      C1566   1.391       .  A
C1565      H1569   1.075       .  S
C1566      C1567   1.390       .  A
C1566      C1636   1.519       .  S
C1567      H1570   1.084       .  S
C1571      C1576   1.429       .  A
C1572      C1573   1.415       .  A
C1572      H1577   1.083       .  S
C1573      C1574   1.375       .  A
C1573      C1639   1.467       .  S
C1574      H1578   1.086       .  S
C1575      C1576   1.418       .  A
C1576      H1579   1.083       .  S
Zn1580     O1584   1.926       .  S
Zn1580     O1585   2.086       .  S
Zn1580     O1589   2.033       .  S
Zn1581     O1584   1.987       .  S
Zn1581     O1586   1.976       .  S
Zn1581     O1588   2.051       .  S
Zn1581     O1592   2.016       .  S
Zn1582     O1584   1.979       .  S
Zn1582     O1587   2.105       .  S
Zn1582     O1590   2.118       .  S
Zn1583     O1591   2.047       .  S
Zn1583     O1594   2.016       .  S
Zn1583     O1595   2.090       .  S
O1585      C1597   1.279       .  A
O1586      C1598   1.273       .  A
O1587      C1599   1.276       .  A
O1588      C1597   1.271       .  A
O1589      C1599   1.284       .  A
O1590      C1598   1.291       .  A
O1591      C1600   1.274       .  A
O1593      C1600   1.277   1_554  A
O1594      C1601   1.286       .  A
O1595      C1602   1.272       .  A
O1596      C1602   1.268       .  A
C1603      C1604   1.421       .  A
C1603      C1608   1.413       .  A
C1604      C1605   1.408       .  A
C1604      H1609   1.083       .  S
C1605      C1606   1.390       .  A
C1606      C1607   1.383       .  A
C1606      H1610   1.082       .  S
C1607      C1608   1.421       .  A
C1607      C1622   1.488       .  S
C1608      H1611   1.082       .  S
C1612      C1617   1.450       .  A
C1613      C1614   1.388       .  A
C1613      H1618   1.078       .  S
C1614      C1615   1.392       .  A
C1614      C1625   1.493       .  S
C1615      H1619   1.079       .  S
C1616      C1617   1.441       .  A
C1617      H1620   1.082       .  S
C1621      C1622   1.402       .  A
C1621      C1626   1.389       .  A
C1621      H1628   1.084       .  S
C1622      C1623   1.427       .  A
C1623      C1624   1.409       .  A
C1623      N1630   1.434       .  S
C1624      C1625   1.407       .  A
C1624      H1629   1.084       .  S
C1625      C1626   1.411       .  A
C1626      N1627   1.427       .  S
N1627      H1631   1.045       .  S
N1627      H1632   1.046       .  S
N1630      H1633   1.038       .  S
N1630      H1634   1.045       .  S
C1635      C1636   1.412       .  A
C1635      C1640   1.406       .  A
C1635      H1642   1.083       .  S
C1636      C1637   1.417       .  A
C1637      C1638   1.406       .  A
C1637      N1644   1.435       .  S
C1638      C1639   1.408       .  A
C1638      H1643   1.084       .  S
C1639      C1640   1.413       .  A
C1640      N1641   1.434       .  S
N1641      H1645   1.041       .  S
N1641      H1646   1.045       .  S
N1644      H1647   1.046       .  S
N1644      H1648   1.043       .  S
C1649      C1650   1.420       .  A
C1649      C1654   1.405       .  A
C1649      H1656   1.083       .  S
C1650      C1651   1.425       .  A
C1651      C1652   1.402       .  A
C1651      N1658   1.432       .  S
C1652      C1653   1.403       .  A
C1652      H1657   1.084       .  S
C1653      C1654   1.410       .  A
C1654      N1655   1.435       .  S
N1655      H1659   1.045       .  S
N1655      H1660   1.046       .  S
N1658      H1661   1.046       .  S
N1658      H1662   1.046       .  S
C1663      C1664   1.410       .  A
C1663      C1668   1.391       .  A
C1663      H1670   1.083       .  S
C1664      C1665   1.426       .  A
C1665      C1666   1.407       .  A
C1665      N1672   1.437       .  S
C1666      C1667   1.411       .  A
C1666      H1671   1.084       .  S
C1667      C1668   1.407       .  A
C1668      N1669   1.430       .  S
N1669      H1673   1.046       .  S
N1669      H1674   1.046       .  S
N1672      H1675   1.044       .  S
N1672      H1676   1.046       .  S
C1677      C1678   1.408       .  A
C1677      C1682   1.394       .  A
C1677      H1684   1.083       .  S
C1678      C1679   1.416       .  A
C1679      C1680   1.397       .  A
C1679      N1686   1.438   1_655  S
C1680      C1681   1.412       .  A
C1680      H1685   1.084       .  S
C1681      C1682   1.420       .  A
C1682      N1683   1.433       .  S
N1683      H1687   1.046       .  S
N1683      H1688   1.046       .  S
N1686      H1689   1.046       .  S
N1686      H1690   1.046       .  S
C1691      C1692   1.419       .  A
C1691      C1696   1.403       .  A
C1691      H1698   1.081       .  S
C1692      C1693   1.404       .  A
C1693      C1694   1.401       .  A
C1693      N1700   1.429       .  S
C1694      C1695   1.412       .  A
C1694      H1699   1.084       .  S
C1695      C1696   1.399       .  A
C1696      N1697   1.432       .  S
N1697      H1701   1.044       .  S
N1697      H1702   1.045       .  S
N1700      H1703   1.043       .  S
N1700      H1704   1.045       .  S
C1705      C1706   1.423       .  A
C1705      C1710   1.415       .  A
C1705      C1882   1.494       .  S
C1706      C1707   1.403       .  A
C1706      H1711   1.083       .  S
C1707      C1708   1.375       .  A
C1707      C1801   1.452       .  S
C1708      C1709   1.374       .  A
C1708      H1712   1.088       .  S
C1709      C1710   1.413       .  A
C1709      C1979   1.460       .  S
C1710      H1713   1.083       .  S
C1714      C1719   1.428       .  A
C1715      C1716   1.402       .  A
C1715      H1720   1.082       .  S
C1716      C1717   1.392       .  A
C1716      C1976   1.510       .  S
C1717      H1721   1.084       .  S
C1718      C1719   1.427       .  A
C1719      H1722   1.082       .  S
Zn1723     O1727   1.962       .  S
Zn1723     O1728   1.999       .  S
Zn1724     O1727   1.947       .  S
Zn1724     O1729   2.009       .  S
Zn1724     O1731   2.069       .  S
Zn1724     O1735   2.097       .  S
Zn1725     O1727   1.936       .  S
Zn1725     O1733   2.055       .  S
Zn1726     O1734   1.961       .  S
Zn1726     O1738   1.974       .  S
O1728      C1740   1.279       .  A
O1729      C1741   1.275       .  A
O1730      C1742   1.287       .  A
O1731      C1740   1.276       .  A
O1732      C1742   1.267       .  A
O1733      C1741   1.269       .  A
O1734      C1743   1.263       .  A
O1735      C1744   1.285       .  A
O1736      C1743   1.292       .  A
O1737      C1744   1.266       .  A
O1738      C1745   1.269       .  A
O1739      C1745   1.288       .  A
C1740      C1766   1.494       .  S
C1741      C1848   1.487       .  S
C1743      C1807   1.475       .  S
C1744      C1755   1.481       .  S
C1745      C1887   1.496       .  S
C1746      C1747   1.414       .  A
C1746      C1751   1.422       .  A
C1746      C1886   1.481       .  S
C1747      C1748   1.410       .  A
C1747      H1752   1.083       .  S
C1748      C1749   1.390       .  A
C1748      C1962   1.491       .  S
C1749      C1750   1.390       .  A
C1749      H1753   1.083       .  S
C1750      C1751   1.420       .  A
C1750      C1803   1.479       .  S
C1751      H1754   1.083       .  S
C1755      C1756   1.403       .  A
C1756      C1757   1.401       .  A
C1756      H1761   1.075       .  S
C1757      C1758   1.393       .  A
C1757      C1965   1.507       .  S
C1758      C1759   1.404       .  A
C1758      H1762   1.083       .  S
C1759      C1844   1.503       .  S
C1760      H1763   1.082       .  S
C1764      C1765   1.430       .  A
C1764      C1769   1.417       .  A
C1764      C1881   1.491       .  S
C1765      C1766   1.427       .  A
C1765      H1770   1.083       .  S
C1766      C1767   1.398       .  A
C1767      C1768   1.387       .  A
C1767      H1771   1.082       .  S
C1768      C1769   1.408       .  A
C1768      C1948   1.490       .  S
C1769      H1772   1.083       .  S
C1773      C1778   1.423       .  A
C1774      C1775   1.400       .  A
C1774      H1779   1.072       .  S
C1775      C1776   1.397       .  A
C1775      C1951   1.497       .  S
C1776      H1780   1.084       .  S
C1777      C1778   1.407       .  A
C1778      H1781   1.083       .  S
Zn1782     O1787   1.977       .  S
Zn1782     O1798   2.009       .  S
Zn1783     O1790   2.047       .  S
Zn1783     O1794   2.072       .  S
Zn1784     O1786   1.933       .  S
Zn1784     O1789   2.007       .  S
Zn1784     O1792   1.989       .  S
Zn1784     O1795   2.051       .  S
Zn1785     O1793   1.980       .  S
Zn1785     O1796   1.985       .  S
Zn1785     O1797   2.010       .  S
O1787      C1799   1.264       .  A
O1788      C1800   1.271       .  A
O1789      C1801   1.269       .  A
O1790      C1799   1.282       .  A
O1791      C1801   1.274       .  A
O1792      C1800   1.274       .  A
O1794      C1803   1.290       .  A
O1795      C1802   1.278       .  A
O1796      C1803   1.265       .  A
O1797      C1804   1.268       .  A
O1798      C1804   1.280       .  A
C1800      C1846   1.489       .  S
C1804      C1889   1.477       .  S
C1805      C1806   1.426       .  A
C1805      C1810   1.416       .  A
C1805      C1884   1.497       .  S
C1806      C1807   1.420       .  A
C1806      H1811   1.082       .  S
C1807      C1808   1.388       .  A
C1808      C1809   1.392       .  A
C1808      H1812   1.084       .  S
C1809      C1810   1.401       .  A
C1809      C1937   1.497       .  S
C1810      H1813   1.083       .  S
C1814      C1815   1.415       .  A
C1815      C1816   1.401       .  A
C1815      H1820   1.083   1_455  S
C1817      C1818   1.390       .  A
C1817      H1821   1.085   1_565  S
C1818      C1819   1.416       .  A
C1818      C1934   1.496       .  S
C1819      H1822   1.083       .  S
Zn1823     O1832   2.164   1_556  S
Zn1823     O2123   2.091       .  S
Zn1824     O1829   2.080       .  S
Zn1824     O2119   2.100   1_554  S
Zn1825     O1827   1.958   1_554  S
Zn1825     O1830   1.991       .  S
Zn1825     O1833   1.995       .  S
Zn1825     O1836   2.035   1_554  S
Zn1826     O2111   1.907       .  S
Zn1826     O1834   2.097       .  S
O1827     Zn2110   1.927       .  S
O1828      C1840   1.278       .  A
O1829      C1841   1.293       .  A
O1831      C1840   1.272       .  A
O1832      C1842   1.291   1_565  A
O1834      C1843   1.280       .  A
O1835     Zn2108   2.100       .  S
O1835      C1844   1.283       .  A
O1836      C2127   1.272       .  A
O1837      C1844   1.278       .  A
O1838      C1845   1.264   1_545  A
O1839     Zn2107   2.068       .  S
O1839      C1845   1.285       .  A
C1840      C2180   1.488       .  S
C1843      C2139   1.504       .  S
C1843      O2120   1.272       .  A
C1846      C1847   1.429       .  A
C1846      C1851   1.415       .  A
C1847      C1848   1.428       .  A
C1847      H1852   1.082       .  S
C1848      C1849   1.410       .  A
C1849      C1850   1.393       .  A
C1849      H1853   1.081       .  S
C1850      C1851   1.395       .  A
C1850      C1920   1.519       .  S
C1851      H1854   1.084       .  S
C1855      C2140   1.421       .  A
C1855      C1860   1.425       .  A
C1855      C2127   1.508       .  S
C1856      C2139   1.421       .  A
C1856      C1857   1.418       .  A
C1856      H1861   1.083       .  S
C1857      C1858   1.375       .  A
C1857      C1923   1.473       .  S
C1858      C2143   1.382       .  A
C1858      H1862   1.086       .  S
C1859      C2142   1.383       .  A
C1859      C1860   1.414       .  A
C1859      C2169   1.476       .  S
C1860      H1863   1.083       .  S
Zn1864     O1868   1.914       .  S
Zn1864     O1869   2.049       .  S
Zn1864     O1873   2.008       .  S
Zn1864     O2164   1.963       .  S
Zn1865     O1868   1.982       .  S
Zn1865     O1870   1.980       .  S
Zn1865     O1872   2.036       .  S
Zn1865     O1876   2.002       .  S
Zn1866     O1868   1.965       .  S
Zn1866     O1871   2.080       .  S
Zn1866     O1874   2.115       .  S
Zn1866     O2161   2.004   1_554  S
Zn1867     O2152   1.959       .  S
Zn1867     O1875   2.083       .  S
Zn1867     O1878   2.002       .  S
Zn1867     O1879   2.063       .  S
O1868     Zn2151   1.956   1_554  S
O1869      C1881   1.276       .  A
O1870      C1882   1.273       .  A
O1871      C1883   1.273       .  A
O1872      C1881   1.270       .  A
O1873      C1883   1.281       .  A
O1874      C1882   1.289       .  A
O1875      C1884   1.276       .  A
O1876      C2169   1.268   1_554  A
O1877     Zn2150   1.983       .  S
O1877      C1884   1.271       .  A
O1878      C1885   1.283       .  A
O1879      C1886   1.274       .  A
O1880     Zn2148   2.013       .  S
O1880      C1886   1.270       .  A
C1883      C2184   1.505       .  S
C1885      C2143   1.473       .  S
C1885      O2160   1.270       .  A
C1887      C1888   1.423       .  A
C1887      C1892   1.409       .  A
C1888      C1889   1.411       .  A
C1888      H1893   1.083       .  S
C1889      C1890   1.393       .  A
C1890      C1891   1.383       .  A
C1890      H1894   1.085       .  S
C1891      C1892   1.419       .  A
C1891      C1906   1.479       .  S
C1892      H1895   1.080       .  S
C1896      C2181   1.417       .  A
C1896      C1901   1.432       .  A
C1896      C2124   1.493       .  S
C1897      C2180   1.408       .  A
C1897      C1898   1.396       .  A
C1897      H1902   1.082       .  S
C1898      C1899   1.396       .  A
C1898      C1909   1.498       .  S
C1899      C2184   1.397       .  A
C1899      H1903   1.079       .  S
C1900      C2183   1.404       .  A
C1900      C1901   1.426       .  A
C1900      C2167   1.499       .  S
C1901      H1904   1.082       .  S
C1905      C1906   1.403       .  A
C1905      C1910   1.388       .  A
C1905      H1912   1.084       .  S
C1906      C1907   1.424       .  A
C1907      C1908   1.414       .  A
C1907      N1914   1.435       .  S
C1908      C1909   1.413       .  A
C1908      H1913   1.083       .  S
C1909      C1910   1.407       .  A
C1910      N1911   1.425       .  S
N1911      H1915   1.045       .  S
N1911      H1916   1.046       .  S
N1914      H1917   1.042       .  S
N1914      H1918   1.045       .  S
C1919      C1920   1.410       .  A
C1919      C1924   1.409       .  A
C1919      H1926   1.083       .  S
C1920      C1921   1.415       .  A
C1921      C1922   1.405       .  A
C1921      N1928   1.436       .  S
C1922      C1923   1.411       .  A
C1922      H1927   1.084       .  S
C1923      C1924   1.417       .  A
C1924      N1925   1.439       .  S
N1925      H1929   1.045       .  S
N1925      H1930   1.045       .  S
N1928      H1931   1.046       .  S
N1928      H1932   1.044       .  S
C1933      C1934   1.420       .  A
C1933      C1938   1.406   1_565  A
C1933      H1940   1.083   1_565  S
C1934      C1935   1.427       .  A
C1935      C1936   1.401       .  A
C1935      N1942   1.432       .  S
C1936      C1937   1.400       .  A
C1936      H1941   1.084       .  S
C1937      C1938   1.412   1_565  A
C1938      N1939   1.435       .  S
N1939      H1943   1.045       .  S
N1939      H1944   1.046       .  S
N1942      H1945   1.045       .  S
N1942      H1946   1.046       .  S
C1947      C1948   1.409       .  A
C1947      C1952   1.385       .  A
C1947      H1954   1.081       .  S
C1948      C1949   1.422       .  A
C1949      C1950   1.404       .  A
C1949      N1956   1.437       .  S
C1950      C1951   1.411       .  A
C1950      H1955   1.084       .  S
C1951      C1952   1.411       .  A
C1952      N1953   1.433       .  S
N1953      H1957   1.046       .  S
N1953      H1958   1.046       .  S
N1956      H1959   1.044       .  S
N1956      H1960   1.046       .  S
C1961      C1962   1.412       .  A
C1961      C1966   1.395       .  A
C1961      H1968   1.082       .  S
C1962      C1963   1.420       .  A
C1963      C1964   1.401       .  A
C1963      N1970   1.437   1_655  S
C1964      C1965   1.412       .  A
C1964      H1969   1.084       .  S
C1965      C1966   1.411       .  A
C1966      N1967   1.433       .  S
N1967      H1971   1.046       .  S
N1967      H1972   1.046       .  S
N1970      H1973   1.044   1_455  S
N1970      H1974   1.046       .  S
C1975      C1976   1.415   1_565  A
C1975      C1980   1.400       .  A
C1975      H1982   1.081       .  S
C1976      C1977   1.405   1_545  A
C1977      C1978   1.405       .  A
C1977      N1984   1.429       .  S
C1978      C1979   1.416       .  A
C1978      H1983   1.084       .  S
C1979      C1980   1.404       .  A
C1980      N1981   1.430       .  S
N1981      H1985   1.042       .  S
N1981      H1986   1.044       .  S
N1984      H1987   1.045       .  S
N1984      H1988   1.045       .  S
C1989      C1990   1.415       .  A
C1989      C1994   1.412       .  A
C1989      C2166   1.483       .  S
C1990      C1991   1.404       .  A
C1990      H1995   1.084       .  S
C1991      C1992   1.378       .  A
C1991      C2085   1.454       .  S
C1992      C1993   1.375       .  A
C1992      H1996   1.085       .  S
C1993      C1994   1.407       .  A
C1993      C2263   1.455       .  S
C1994      H1997   1.083       .  S
C1998      C2003   1.430       .  A
C1999      C2000   1.404   1_565  A
C1999      H2004   1.082       .  S
C2000      C2001   1.391       .  A
C2000      C2260   1.510   1_545  S
C2001      H2005   1.086       .  S
C2002      C2003   1.426       .  A
C2003      H2006   1.082       .  S
Zn2007     O2011   1.952       .  S
Zn2007     O2012   2.011       .  S
Zn2008     O2011   1.951       .  S
Zn2008     O2013   2.003       .  S
Zn2008     O2015   2.063       .  S
Zn2008     O2019   2.063       .  S
Zn2009     O2011   1.961       .  S
Zn2009     O2017   2.065       .  S
Zn2010     O2018   2.010       .  S
Zn2010     O2022   2.004       .  S
O2012      C2024   1.280       .  A
O2013      C2025   1.272       .  A
O2014      C2026   1.284       .  A
O2015      C2024   1.274       .  A
O2016      C2026   1.272       .  A
O2017      C2025   1.268       .  A
O2018      C2027   1.269       .  A
O2019      C2028   1.281       .  A
O2020      C2027   1.290       .  A
O2021      C2028   1.273       .  A
O2022      C2029   1.274       .  A
O2023      C2029   1.289       .  A
C2024      C2050   1.494       .  S
C2025      C2132   1.487       .  S
C2027      C2091   1.484       .  S
C2028      C2039   1.487       .  S
C2029      C2171   1.512       .  S
C2030      C2031   1.423       .  A
C2030      C2035   1.422       .  A
C2030      C2170   1.478       .  S
C2031      C2032   1.406       .  A
C2031      H2036   1.083       .  S
C2032      C2033   1.388       .  A
C2032      C2246   1.502       .  S
C2033      C2034   1.397       .  A
C2033      H2037   1.083       .  S
C2034      C2035   1.412       .  A
C2034      C2087   1.458       .  S
C2035      H2038   1.083       .  S
C2039      C2040   1.414       .  A
C2040      C2041   1.405       .  A
C2040      H2045   1.082       .  S
C2041      C2042   1.388       .  A
C2041      C2249   1.488       .  S
C2042      C2043   1.396       .  A
C2042      H2046   1.082       .  S
C2043      C2128   1.507       .  S
C2044      H2047   1.083       .  S
C2048      C2049   1.432       .  A
C2048      C2053   1.413       .  A
C2048      C2165   1.506       .  S
C2049      C2050   1.429       .  A
C2049      H2054   1.083       .  S
C2050      C2051   1.389       .  A
C2051      C2052   1.380       .  A
C2051      H2055   1.085       .  S
C2052      C2053   1.410       .  A
C2052      C2232   1.468       .  S
C2053      H2056   1.083       .  S
C2057      C2062   1.428       .  A
C2058      C2059   1.405       .  A
C2058      H2063   1.082       .  S
C2059      C2060   1.400       .  A
C2059      C2235   1.508       .  S
C2060      H2064   1.084       .  S
C2061      C2062   1.412       .  A
C2062      H2065   1.083       .  S
Zn2066     O2071   2.015   1_455  S
Zn2066     O2082   1.982   1_455  S
Zn2067     O2074   2.069       .  S
Zn2067     O2078   2.099       .  S
Zn2068     O2070   1.921       .  S
Zn2068     O2073   2.000       .  S
Zn2068     O2076   1.965       .  S
Zn2068     O2079   2.062       .  S
Zn2069     O2077   2.024   1_655  S
Zn2069     O2080   1.932       .  S
Zn2069     O2081   1.973       .  S
O2071      C2083   1.270       .  A
O2072      C2084   1.273       .  A
O2073      C2085   1.269       .  A
O2074      C2083   1.288       .  A
O2075      C2085   1.274       .  A
O2076      C2084   1.273       .  A
O2078      C2087   1.293       .  A
O2079      C2086   1.277       .  A
O2080      C2087   1.261       .  A
O2081      C2088   1.263       .  A
O2082      C2088   1.279       .  A
C2084      C2130   1.486       .  S
C2088      C2173   1.468       .  S
C2089      C2090   1.431       .  A
C2089      C2094   1.418       .  A
C2089      C2168   1.497       .  S
C2090      C2091   1.424       .  A
C2090      H2095   1.082       .  S
C2091      C2092   1.396       .  A
C2092      C2093   1.393       .  A
C2092      H2096   1.083   1_565  S
C2093      C2094   1.401       .  A
C2093      C2221   1.501       .  S
C2094      H2097   1.083       .  S
C2098      C2099   1.416       .  A
C2099      C2100   1.410       .  A
C2099      H2104   1.083   1_455  S
C2101      C2102   1.388       .  A
C2101      H2105   1.086   1_565  S
C2102      C2103   1.418       .  A
C2102      C2218   1.488       .  S
C2103      H2106   1.082       .  S
Zn2107     O2116   2.136       .  S
Zn2108     O2113   2.105       .  S
Zn2109     O2111   1.958       .  S
Zn2109     O2114   2.005       .  S
Zn2109     O2117   1.996       .  S
Zn2109     O2120   2.021       .  S
Zn2110     O2118   2.100       .  S
O2112      C2124   1.269       .  A
O2113      C2125   1.292       .  A
O2115      C2124   1.268       .  A
O2116      C2126   1.289   1_565  A
O2118      C2127   1.280       .  A
O2119      C2128   1.270       .  A
O2121      C2128   1.275       .  A
O2122      C2129   1.261   1_545  A
O2123      C2129   1.288       .  A
C2130      C2131   1.428       .  A
C2130      C2135   1.416       .  A
C2131      C2132   1.427       .  A
C2131      H2136   1.082       .  S
C2132      C2133   1.410       .  A
C2133      C2134   1.391       .  A
C2133      H2137   1.074       .  S
C2134      C2135   1.391       .  A
C2134      C2204   1.519       .  S
C2135      H2138   1.084       .  S
C2139      C2144   1.422       .  A
C2140      C2141   1.417       .  A
C2140      H2145   1.083       .  S
C2141      C2142   1.373       .  A
C2141      C2207   1.469       .  S
C2142      H2146   1.087       .  S
C2143      C2144   1.410       .  A
C2144      H2147   1.083       .  S
Zn2148     O2152   1.920       .  S
Zn2148     O2153   2.101       .  S
Zn2148     O2157   2.046       .  S
Zn2149     O2152   1.964       .  S
Zn2149     O2154   1.994       .  S
Zn2149     O2156   2.040       .  S
Zn2149     O2160   2.002       .  S
Zn2150     O2152   1.960       .  S
Zn2150     O2155   2.044       .  S
Zn2150     O2158   2.064       .  S
Zn2151     O2159   2.061       .  S
Zn2151     O2162   2.012       .  S
Zn2151     O2163   2.049       .  S
O2153      C2165   1.284       .  A
O2154      C2166   1.275       .  A
O2155      C2167   1.271       .  A
O2156      C2165   1.272       .  A
O2157      C2167   1.284       .  A
O2158      C2166   1.283       .  A
O2159      C2168   1.275       .  A
O2161      C2168   1.276       .  A
O2162      C2169   1.284       .  A
O2163      C2170   1.272       .  A
O2164      C2170   1.265   1_554  A
C2171      C2172   1.426       .  A
C2171      C2176   1.423       .  A
C2172      C2173   1.407       .  A
C2172      H2177   1.083       .  S
C2173      C2174   1.377       .  A
C2174      C2175   1.367       .  A
C2174      H2178   1.086       .  S
C2175      C2176   1.426       .  A
C2175      C2190   1.475       .  S
C2176      H2179   1.081       .  S
C2180      C2185   1.432       .  A
C2181      C2182   1.389       .  A
C2181      H2186   1.083       .  S
C2182      C2183   1.397       .  A
C2182      C2193   1.512       .  S
C2183      H2187   1.075       .  S
C2184      C2185   1.423       .  A
C2185      H2188   1.079       .  S
C2189      C2190   1.405       .  A
C2189      C2194   1.400       .  A
C2189      H2196   1.083       .  S
C2190      C2191   1.436       .  A
C2191      C2192   1.411       .  A
C2191      N2198   1.438       .  S
C2192      C2193   1.407       .  A
C2192      H2197   1.083       .  S
C2193      C2194   1.411       .  A
C2194      N2195   1.431       .  S
N2195      H2199   1.044   1_655  S
N2195      H2200   1.044       .  S
N2198      H2201   1.043       .  S
N2198      H2202   1.045       .  S
C2203      C2204   1.411       .  A
C2203      C2208   1.405       .  A
C2203      H2210   1.083       .  S
C2204      C2205   1.417       .  A
C2205      C2206   1.406       .  A
C2205      N2212   1.435       .  S
C2206      C2207   1.409       .  A
C2206      H2211   1.084       .  S
C2207      C2208   1.412       .  A
C2208      N2209   1.434       .  S
N2209      H2213   1.042       .  S
N2209      H2214   1.045       .  S
N2212      H2215   1.046       .  S
N2212      H2216   1.044       .  S
C2217      C2218   1.416   1_545  A
C2217      C2222   1.404       .  A
C2217      H2224   1.084       .  S
C2218      C2219   1.421       .  A
C2219      C2220   1.396       .  A
C2219      N2226   1.433       .  S
C2220      C2221   1.404       .  A
C2220      H2225   1.084       .  S
C2221      C2222   1.414   1_565  A
C2222      N2223   1.435       .  S
N2223      H2227   1.045       .  S
N2223      H2228   1.046       .  S
N2226      H2229   1.045       .  S
N2226      H2230   1.046       .  S
C2231      C2232   1.414       .  A
C2231      C2236   1.400       .  A
C2231      H2238   1.084       .  S
C2232      C2233   1.422       .  A
C2233      C2234   1.413       .  A
C2233      N2240   1.431       .  S
C2234      C2235   1.410       .  A
C2234      H2239   1.082       .  S
C2235      C2236   1.400       .  A
C2236      N2237   1.425       .  S
N2237      H2241   1.045       .  S
N2237      H2242   1.045       .  S
N2240      H2243   1.043       .  S
N2240      H2244   1.043       .  S
C2245      C2246   1.406       .  A
C2245      C2250   1.390       .  A
C2245      H2252   1.083       .  S
C2246      C2247   1.421       .  A
C2247      C2248   1.401       .  A
C2247      N2254   1.437   1_655  S
C2248      C2249   1.411       .  A
C2248      H2253   1.084       .  S
C2249      C2250   1.418       .  A
C2250      N2251   1.433       .  S
N2251      H2255   1.046       .  S
N2251      H2256   1.046       .  S
N2254      H2257   1.045       .  S
N2254      H2258   1.045       .  S
C2259      C2260   1.417       .  A
C2259      C2264   1.403       .  A
C2259      H2266   1.083       .  S
C2260      C2261   1.405       .  A
C2261      C2262   1.404       .  A
C2261      N2268   1.430       .  S
C2262      C2263   1.414       .  A
C2262      H2267   1.084       .  S
C2263      C2264   1.404       .  A
C2264      N2265   1.430       .  S
N2265      H2269   1.043       .  S
N2265      H2270   1.045       .  S
N2268      H2271   1.044       .  S
N2268      H2272   1.045       .  S
