geometry optimzed in LAMMPS
_audit_creation_date              2020-12-01 
_audit_creation_method            'lammps2cif' 
_symmetry_space_group_name_H-M    'P1' 
_symmetry_Int_Tables_number       1 
_symmetry_cell_setting            triclinic 
loop_ 
_symmetry_equiv_pos_as_xyz 
  x,y,z 
_cell_length_a                    35.88882084 
_cell_length_b                    34.47638092995538 
_cell_length_c                    36.46971851804436 
_cell_angle_alpha                 93.29778928067978 
_cell_angle_beta                  89.29315061615173 
_cell_angle_gamma                 89.89942137329334 
loop_ 
_atom_site_label 
_atom_site_type_symbol 
_atom_site_fract_x 
_atom_site_fract_y 
_atom_site_fract_z 
_atom_site_charge 
C1          C  0.19472533  0.20016530  0.21806381     0.88100
C2          C  0.22431932  0.22756111  0.20274651    -0.52100
C3          C  0.24318652  0.24951615  0.22871105     0.11100
C4          C  0.23169749  0.24119875  0.26839357     0.22000
C5          C  0.21752047  0.17563108  0.24423124    -0.52800
C6          C  0.23741083  0.19679701  0.27043585     0.11200
C7          C  0.17012783  0.22652869  0.24367139    -0.52300
C8          C  0.18898483  0.24786608  0.27007562     0.11700
H9          H  0.22989268  0.22958741  0.17357855     0.16300
H10         H  0.24718296  0.25948282  0.28902329     0.02000
H11         H  0.21949309  0.14440595  0.24158661     0.16600
H12         H  0.14016116  0.22887527  0.24053198     0.16400
C13         C  0.09734120  0.47639529  0.43622245     0.31700
C14         C  0.09666630  0.54365315  0.48084111     0.31700
C15         C  0.10362246  0.51450942  0.41730339    -0.04500
C16         C  0.05964909  0.48559998  0.45671259    -0.05300
C17         C  0.12536303  0.47853367  0.46761322    -0.05200
C18         C  0.10383521  0.54835301  0.43980573    -0.04500
C19         C  0.05929724  0.52067065  0.47967767    -0.05300
C20         C  0.12481066  0.51247937  0.49034988    -0.05200
C21         C  0.11015009  0.57873529  0.41759724    -0.30600
N22         N  0.11332446  0.56402977  0.38239998     0.15900
C23         C  0.10874970  0.52502491  0.38177742    -0.30600
H24         H  0.11007049  0.50575067  0.35729409     0.17900
C25         C  0.02261772  0.53342661  0.48084149    -0.29600
N26         N  0.00079838  0.50729965  0.46240808     0.14600
C27         C  0.02297763  0.47926671  0.44601953    -0.29600
C28         C  0.13680028  0.50254883  0.52442496    -0.29800
N29         N  0.14520916  0.46426820  0.52302282     0.15200
H30         H  0.13510815  0.52087913  0.54952763     0.17800
C31         C  0.13768170  0.44930092  0.48879103    -0.29900
H32         H  0.13767279  0.41861097  0.48068674     0.17800
H33         H  0.01351048  0.45763246  0.42600510     0.17800
H34         H  0.11239021  0.60919330  0.42625073     0.17900
H35         H  0.01266815  0.56193424  0.49095296     0.17800
C36         C  0.19776738  0.80922254  0.70543913     0.88100
C37         C  0.22340705  0.77947051  0.72270175    -0.52100
C38         C  0.24256068  0.75565266  0.69797993     0.11100
C39         C  0.23336136  0.76250370  0.65778632     0.22000
C40         C  0.22313617  0.83017860  0.67858867    -0.52800
C41         C  0.24197674  0.80587638  0.65378535     0.11200
C42         C  0.17207341  0.78315229  0.68082713    -0.52300
C43         C  0.19065052  0.75924037  0.65568864     0.11700
H44         H  0.22644466  0.77730871  0.75209750     0.16300
H45         H  0.24835232  0.74262856  0.63755998     0.02000
H46         H  0.22705829  0.86145485  0.68020984     0.16600
H47         H  0.14205841  0.78164990  0.68375525     0.16400
C48         C  0.45296959  0.11448725  0.42682677     0.31700
C49         C  0.51300082  0.10919850  0.47282993     0.31700
C50         C  0.45069081  0.13917742  0.46362785    -0.04500
C51         C  0.46185340  0.07346366  0.43981283    -0.05300
C52         C  0.49144736  0.12768456  0.41133156    -0.05200
C53         C  0.48101380  0.13582168  0.48660788    -0.04500
C54         C  0.49279350  0.07055020  0.46277286    -0.05300
C55         C  0.52165420  0.12313002  0.43440411    -0.05200
C56         C  0.47069860  0.15091247  0.52096568    -0.30600
N57         N  0.43538718  0.16453157  0.51963952     0.15900
C58         C  0.42303648  0.15826049  0.48472581    -0.30600
H59         H  0.39486321  0.16414829  0.47646002     0.17900
C60         C  0.49919403  0.03127389  0.46580202    -0.29600
N61         N  0.47182882  0.01102609  0.44807645     0.14600
C62         C  0.44908935  0.03610335  0.43164863    -0.29600
C63         C  0.55312130  0.13642105  0.41719637    -0.29800
N64         N  0.54308782  0.15190405  0.38555926     0.15200
H65         H  0.58122060  0.13627207  0.42763404     0.17800
C66         C  0.50558747  0.14776106  0.38208317    -0.29900
H67         H  0.48983555  0.16095178  0.36101748     0.17800
H68         H  0.42631243  0.02768759  0.41376167     0.17800
H69         H  0.48664216  0.14919784  0.54583324     0.17900
H70         H  0.52286835  0.01782989  0.47802441     0.17800
C71         C  0.77870100  0.26359073  0.16869400     0.88100
C72         C  0.79804926  0.29470022  0.19356786    -0.52100
C73         C  0.77455593  0.32033598  0.21205098     0.11100
C74         C  0.73295047  0.31154627  0.20477536     0.22000
C75         C  0.75249655  0.24398522  0.19585049    -0.52800
C76         C  0.72827726  0.26889705  0.21430661     0.11200
C77         C  0.75286036  0.28604106  0.14409920    -0.52300
C78         C  0.72872010  0.31099941  0.16276249     0.11700
H79         H  0.82746901  0.29402446  0.19972722     0.16300
H80         H  0.71308953  0.33149574  0.21988226     0.02000
H81         H  0.75313236  0.21317837  0.20052469     0.16600
H82         H  0.75356946  0.28219553  0.11433460     0.16400
C83         C  0.20898169  0.24681317  0.77009113     0.88100
C84         C  0.19167507  0.27390580  0.74263709    -0.52100
C85         C  0.21713791  0.29505432  0.72424231     0.11100
C86         C  0.25750803  0.28823301  0.73541482     0.22000
C87         C  0.23834306  0.22266257  0.74750832    -0.52800
C88         C  0.26368174  0.24430137  0.72925266     0.11200
C89         C  0.23163403  0.27522010  0.79533510    -0.52300
C90         C  0.25740194  0.29641161  0.77729883     0.11700
H91         H  0.16193892  0.27615073  0.73798955     0.16300
H92         H  0.27776126  0.30576426  0.72023867     0.02000
H93         H  0.23857913  0.19111718  0.74582077     0.16600
H94         H  0.22627318  0.28108743  0.82434644     0.16400
C95         C  0.86642437  0.54629493  0.48424976     0.31700
C96         C  0.86692610  0.49874273  0.42150566     0.31700
C97         C  0.86545251  0.56663319  0.44772571    -0.04500
C98         C  0.90198357  0.52054322  0.47824987    -0.05300
C99         C  0.83493823  0.51625257  0.48095312    -0.05200
C100        C  0.86553586  0.54240334  0.41624215    -0.04500
C101        C  0.90234315  0.49575152  0.44545954    -0.05300
C102        C  0.83538073  0.49216114  0.44899348    -0.05200
C103        C  0.86448622  0.56536356  0.38670244    -0.30600
N104        N  0.86369621  0.60320618  0.39920304     0.15900
C105        C  0.86485242  0.60431794  0.43655136    -0.30600
H106        H  0.86498300  0.63054049  0.45432693     0.17900
C107        C  0.93965749  0.49043475  0.43572785    -0.29600
N108        N  0.96136746  0.50858474  0.46136674     0.14600
C109        C  0.93900280  0.52855148  0.48610795    -0.29600
C110        C  0.81949895  0.45738037  0.45761888    -0.29800
N111        N  0.80880197  0.45951918  0.49326354     0.15200
H112        H  0.82021070  0.43073826  0.44037269     0.17800
C113        C  0.81877085  0.49485018  0.50798057    -0.29900
H114        H  0.81917471  0.50242827  0.53720017     0.17800
H115        H  0.94887748  0.54952662  0.50654353     0.17800
H116        H  0.86300706  0.55511194  0.35815897     0.17900
H117        H  0.95053409  0.47791466  0.40968747     0.17800
C118        C  0.75525771  0.83958436  0.18181556     0.88100
C119        C  0.72883351  0.80781506  0.16548934    -0.52100
C120        C  0.71273938  0.78552403  0.19105300     0.11100
C121        C  0.72491073  0.79602284  0.23037007     0.22000
C122        C  0.73152673  0.86229055  0.21148646    -0.52800
C123        C  0.71582188  0.83924272  0.23682980     0.11200
C124        C  0.78339602  0.81583660  0.20339513    -0.52300
C125        C  0.76744078  0.79332537  0.22878766     0.11700
H126        H  0.72422805  0.80171373  0.13647371     0.16300
H127        H  0.71207589  0.77759425  0.25109517     0.02000
H128        H  0.72698261  0.89345638  0.21192957     0.16600
H129        H  0.81322168  0.81547607  0.19805436     0.16400
C130        C  0.76440399  0.18987220  0.69603582     0.88100
C131        C  0.73798815  0.21559240  0.72093760    -0.52100
C132        C  0.71096523  0.23409978  0.70244146     0.11100
C133        C  0.71293048  0.22573788  0.66076547     0.22000
C134        C  0.73882529  0.16262951  0.67312944    -0.52800
C135        C  0.71216397  0.18143416  0.65478578     0.11200
C136        C  0.77969231  0.21893294  0.66872286    -0.52300
C137        C  0.75258674  0.23761019  0.65027511     0.11700
H138        H  0.74105608  0.21967540  0.75048888     0.16300
H139        H  0.69097475  0.24087055  0.64582293     0.02000
H140        H  0.74195678  0.13123268  0.67109373     0.16600
H141        H  0.80875369  0.22639362  0.66557831     0.16400
C142        C  0.44641630  0.86858017  0.47146225     0.31700
C143        C  0.50526462  0.86896033  0.42234525     0.31700
C144        C  0.44019023  0.84709445  0.43379832    -0.04500
C145        C  0.45845945  0.90931988  0.45915223    -0.05300
C146        C  0.48330854  0.85133377  0.48396277    -0.05200
C147        C  0.47002579  0.84730213  0.40869471    -0.04500
C148        C  0.48870778  0.90920063  0.43419595    -0.05300
C149        C  0.51283995  0.85183996  0.45921993    -0.05200
C150        C  0.45445541  0.84288422  0.37413866    -0.30600
N151        N  0.41726620  0.83742114  0.37745145     0.15900
C152        C  0.40814509  0.84179371  0.41351021    -0.30600
H153        H  0.37993713  0.84277197  0.42431558     0.17900
C154        C  0.49521610  0.94715720  0.42595020    -0.29600
N155        N  0.46994938  0.97016595  0.44459133     0.14600
C156        C  0.44718741  0.94778368  0.46461886    -0.29600
C157        C  0.54430229  0.84110131  0.47722496    -0.29800
N158        N  0.53484565  0.83331975  0.51225109     0.15200
H159        H  0.57239701  0.84150792  0.46617812     0.17800
C160        C  0.49743694  0.83943681  0.51651737    -0.29900
H161        H  0.48161856  0.83654424  0.54163105     0.17800
H162        H  0.42460976  0.95899957  0.48205114     0.17800
H163        H  0.46879973  0.84623227  0.34824106     0.17900
H164        H  0.51680234  0.95756627  0.40807219     0.17800
C165        C  0.19665824  0.76321688  0.12576069     0.88100
C166        C  0.17452601  0.73280270  0.14661753    -0.52100
C167        C  0.19589444  0.70944216  0.16691284     0.11100
C168        C  0.23778998  0.71665144  0.16259569     0.22000
C169        C  0.22141779  0.78400169  0.15489972    -0.52800
C170        C  0.24273269  0.75966823  0.17404116     0.11200
C171        C  0.22394913  0.73774068  0.10143847    -0.52300
C172        C  0.24538914  0.71358171  0.12099960     0.11700
H173        H  0.14437690  0.73053935  0.14625812     0.16300
H174        H  0.25567091  0.69744603  0.17838922     0.02000
H175        H  0.22150455  0.81530703  0.16039527     0.16600
H176        H  0.22553939  0.73713460  0.07174200     0.16400
C177        C  0.76197196  0.76255826  0.75062330     0.88100
C178        C  0.78674975  0.73363443  0.72735879    -0.52100
C179        C  0.76745546  0.70737431  0.70562442     0.11100
C180        C  0.72477291  0.71117438  0.71009856     0.22000
C181        C  0.73586232  0.78017283  0.72314244    -0.52800
C182        C  0.71640755  0.75366560  0.70192395     0.11200
C183        C  0.73704108  0.73581189  0.77274602    -0.52300
C184        C  0.71696669  0.70943320  0.75172800     0.11700
H185        H  0.81692020  0.73356896  0.72718816     0.16300
H186        H  0.70900902  0.68967965  0.69258040     0.02000
H187        H  0.73266154  0.81131451  0.72107572     0.16600
H188        H  0.73515741  0.73753535  0.80252169     0.16400
C189        C  0.51425278  0.47096272  0.07846219     0.31700
C190        C  0.45627330  0.52344403  0.07742580     0.31700
C191        C  0.52013708  0.51025291  0.10010916    -0.04500
C192        C  0.50293370  0.48402310  0.04012169    -0.05300
C193        C  0.47669418  0.45832349  0.09578441    -0.05200
C194        C  0.49121594  0.53716480  0.09848073    -0.04500
C195        C  0.47379158  0.51105095  0.03988221    -0.05300
C196        C  0.44740205  0.48469898  0.09410195    -0.05200
C197        C  0.50475918  0.57237785  0.11206778    -0.30600
N198        N  0.53976680  0.56700829  0.12424961     0.15900
C199        C  0.54933107  0.52921812  0.11767951    -0.30600
H200        H  0.57658955  0.51747613  0.12290608     0.17900
C201        C  0.47142352  0.52313161  0.00462132    -0.29600
N202        N  0.49680719  0.50326091  0.98321820     0.14600
C203        C  0.51627068  0.47911338  0.00421940    -0.29600
C204        C  0.41772588  0.47102675  0.11391740    -0.29800
N205        N  0.42810576  0.43761760  0.12897959     0.15200
H206        H  0.39066833  0.48474185  0.11720684     0.17800
C207        C  0.46449836  0.43091773  0.11965535    -0.29900
H208        H  0.48125786  0.40870150  0.13117730     0.17800
H209        H  0.53828608  0.45966053  0.99419219     0.17800
H210        H  0.49100691  0.60029972  0.11144706     0.17900
H211        H  0.45288570  0.54491776  0.99484297     0.17800
C212        C  0.51193220  0.53761473  0.84835631     0.31700
C213        C  0.45484518  0.48454039  0.85248412     0.31700
C214        C  0.51765328  0.49814283  0.82718947    -0.04500
C215        C  0.50295406  0.52376252  0.88768804    -0.05300
C216        C  0.47339173  0.55054074  0.83507999    -0.05200
C217        C  0.48859266  0.47158102  0.82818196    -0.04500
C218        C  0.47334594  0.49709873  0.88888658    -0.05300
C219        C  0.44490322  0.52343791  0.83627982    -0.05200
C220        C  0.50084317  0.43830745  0.80872847    -0.30600
N221        N  0.53681536  0.44338641  0.79841805     0.15900
C222        C  0.54738763  0.47978445  0.80937843    -0.30600
H223        H  0.57532311  0.49114682  0.80662289     0.17900
C224        C  0.46984786  0.48512351  0.92397934    -0.29600
N225        N  0.49671577  0.50250691  0.94457307     0.14600
C226        C  0.51716511  0.52592249  0.92330416    -0.29600
C227        C  0.41551721  0.53785808  0.81705148    -0.29800
N228        N  0.42424905  0.57384150  0.80637933     0.15200
H229        H  0.39005212  0.52266299  0.80989802     0.17800
C230        C  0.45976948  0.58173144  0.81700287    -0.29900
H231        H  0.47490963  0.60792186  0.81151640     0.17800
H232        H  0.54072507  0.54223242  0.93362526     0.17800
H233        H  0.48568809  0.41156920  0.80341975     0.17900
H234        H  0.44915311  0.46539953  0.93399782     0.17800
O235        O  0.02028449  0.05408273  0.00833662    -0.78500
O236        O  0.94657394  0.02452105  0.86362369    -0.78500
O237        O  0.02677321  0.07115006  0.92563120    -0.78500
O238        O  0.94073854  0.07967831  0.97929708    -0.78500
O239        O  0.02072918  0.03217342  0.87528388    -0.78600
O240        O  0.94943045  0.04077845  0.02361839    -0.78500
O241        O  0.93588079  0.07310227  0.90358713    -0.78500
O242        O  0.07342792  0.04437502  0.97895306    -0.78500
C243        C  0.05579641  0.05991850  0.00619796     1.11200
C244        C  0.93457407  0.05874817  0.87093313     1.11100
C245        C  0.03054802  0.06471871  0.89112093     1.11200
C246        C  0.93839179  0.07332575  0.01301266     1.11100
O247        O  0.94932099  0.96311824  0.99047611    -0.78500
O248        O  0.01998368  0.95475897  0.90709182    -0.78600
O249        O  0.03661498  0.97577500  0.98485825    -0.78500
O250        O  0.89992733  0.99817782  0.90874813    -0.78500
O251        O  0.94405792  0.95365739  0.90017545    -0.78500
O252        O  0.00558933  0.98579833  0.03764013    -0.78500
O253        O  0.90405348  0.00491157  0.98280302    -0.78400
O254        O  0.06196008  0.99811838  0.91801169    -0.78500
Co255      Co  0.98581423  0.00624886  0.99444133     1.51500
Co256      Co  0.98286410  0.99175456  0.88990004     1.51700
Co257      Co  0.02881894  0.02591836  0.95583807     1.51600
Co258      Co  0.92364595  0.03863169  0.94363105     1.51500
O259        O  0.97581541  0.01594197  0.94135539    -1.40400
C260        C  0.91537055  0.97301983  0.99482671     1.11100
C261        C  0.05336989  0.96512520  0.90396596     1.11200
C262        C  0.03091803  0.96776427  0.01872843     1.11200
C263        C  0.91013715  0.96362378  0.89881314     1.11100
C264        C  0.83471729  0.83852142  0.78405270     0.14300
C265        C  0.81730577  0.85535248  0.81566321     0.01300
C266        C  0.78080989  0.84455688  0.82432709     0.16300
C267        C  0.76294478  0.81517398  0.80309659     0.25700
C268        C  0.78183384  0.79487578  0.77344588    -0.40700
C269        C  0.81695736  0.80938033  0.76263398     0.32700
C270        C  0.83814556  0.88304638  0.84002524     0.01300
F271        F  0.76262833  0.86215593  0.85363809    -0.13000
F272        F  0.83356033  0.79746118  0.73033917    -0.13500
C273        C  0.82918548  0.92276361  0.84269456     0.16300
C274        C  0.85154446  0.94901414  0.86330010     0.25700
C275        C  0.88312104  0.93575582  0.88169089    -0.40600
C276        C  0.89084438  0.89561686  0.88011112     0.32600
C277        C  0.86870458  0.86964448  0.85930173     0.14300
F278        F  0.79994023  0.93631865  0.82387187    -0.13000
F279        F  0.92032361  0.88145935  0.89816448    -0.13500
F280        F  0.84352447  0.98752986  0.86337499    -0.15800
F281        F  0.87752611  0.83125486  0.85729607    -0.14300
F282        F  0.86888622  0.85095617  0.77350858    -0.14300
F283        F  0.72677849  0.80744113  0.81113886    -0.15700
C284        C  0.63418314  0.67723492  0.80831647     0.14300
C285        C  0.63297106  0.63717140  0.79894451     0.01300
C286        C  0.65978454  0.62083893  0.77406046     0.16300
C287        C  0.68682225  0.64427348  0.75838553     0.25700
C288        C  0.68817740  0.68429211  0.76792882    -0.40700
C289        C  0.66160171  0.70051532  0.79314756     0.32700
C290        C  0.60208487  0.61304295  0.81274469     0.01300
F291        F  0.65977689  0.58208393  0.76493859    -0.13000
F292        F  0.66117672  0.73931221  0.80197270    -0.13500
C293        C  0.57873723  0.59326113  0.78762438     0.16300
C294        C  0.54947834  0.57065823  0.79982382     0.25700
C295        C  0.54273829  0.56627412  0.83785126    -0.40600
C296        C  0.56450504  0.58883574  0.86295109     0.32600
C297        C  0.59435379  0.61121524  0.85053014     0.14300
F298        F  0.58378862  0.59640867  0.75093555    -0.13000
F299        F  0.55581485  0.59200900  0.89905641    -0.13500
F300        F  0.52757414  0.55267163  0.77392163    -0.15800
F301        F  0.61571846  0.63123778  0.87553733    -0.14300
F302        F  0.60782581  0.69415251  0.83100963    -0.14300
F303        F  0.71197433  0.62765484  0.73431239    -0.15700
C304        C  0.08607463  0.87479418  0.02785270     0.14300
C305        C  0.10146745  0.88095763  0.06299024     0.01300
C306        C  0.09285158  0.91566519  0.08369281     0.16300
C307        C  0.06895353  0.94332019  0.06975912     0.25700
C308        C  0.05376073  0.93720652  0.03458178    -0.40700
C309        C  0.06282039  0.90283097  0.01361050     0.32700
C310        C  0.12585093  0.85093810  0.07830091     0.01300
F311        F  0.10842168  0.92328819  0.11707019    -0.13000
F312        F  0.04863226  0.89606539  0.97949450    -0.13500
C313        C  0.15836367  0.83768640  0.05960604     0.16300
C314        C  0.18113200  0.80926214  0.07411090     0.25700
C315        C  0.17158095  0.79277537  0.10763916    -0.40600
C316        C  0.14008746  0.80841825  0.12725033     0.32600
C317        C  0.11711985  0.83606140  0.11231188     0.14300
F318        F  0.16901012  0.85354311  0.02791124    -0.13000
F319        F  0.13179769  0.79798598  0.16173149    -0.13500
F320        F  0.21364074  0.80028283  0.05629543    -0.15800
F321        F  0.08614945  0.84841158  0.13135930    -0.14300
F322        F  0.09303696  0.84124525  0.00756020    -0.14300
F323        F  0.06203817  0.97693152  0.08996412    -0.15700
C324        C  0.38546647  0.60034237  0.11440991     0.14300
C325        C  0.36157469  0.60342242  0.08465548     0.01300
C326        C  0.36616593  0.57777612  0.05366078     0.16300
C327        C  0.39588182  0.55122615  0.05152075     0.25700
C328        C  0.42294564  0.55146288  0.07944005    -0.40700
C329        C  0.41501935  0.57393778  0.11232253     0.32700
C330        C  0.33068542  0.63196222  0.08756021     0.01300
F331        F  0.34152714  0.57801733  0.02572898    -0.13000
F332        F  0.43437048  0.56889207  0.14342974    -0.13500
C333        C  0.33858397  0.67194073  0.09055929     0.16300
C334        C  0.31008917  0.69895553  0.09873963     0.25700
C335        C  0.27346536  0.68628873  0.10447563    -0.40600
C336        C  0.26521921  0.64652462  0.09973898     0.32600
C337        C  0.29365229  0.61947942  0.09123423     0.14300
F338        F  0.37419177  0.68458965  0.08704088    -0.13000
F339        F  0.22985201  0.63382218  0.10474275    -0.13500
F340        F  0.31852127  0.73730989  0.10292455    -0.15800
F341        F  0.28545291  0.58099085  0.08888041    -0.14300
F342        F  0.37920749  0.62194534  0.14622095    -0.14300
F343        F  0.39625613  0.52358971  0.02353186    -0.15700
C344        C  0.62754692  0.76326729  0.64785294     0.14300
C345        C  0.63791296  0.79103849  0.62294254     0.01300
C346        C  0.67410123  0.80637863  0.62398764     0.16300
C347        C  0.69974328  0.79384192  0.64934095     0.25700
C348        C  0.68960122  0.76566047  0.67407444    -0.40700
C349        C  0.65326822  0.75049189  0.67313483     0.32700
C350        C  0.61157662  0.80263848  0.59467769     0.01300
F351        F  0.68448212  0.83370761  0.60053661    -0.13000
F352        F  0.64232853  0.72418159  0.69736586    -0.13500
C353        C  0.57988949  0.82498036  0.60439596     0.16300
C354        C  0.55494179  0.83553511  0.57742742     0.25700
C355        C  0.56071740  0.82295521  0.54025048    -0.40600
C356        C  0.59278546  0.80055790  0.53080442     0.32600
C357        C  0.61807306  0.79093881  0.55770864     0.14300
F358        F  0.57351540  0.83720667  0.63997878    -0.13000
F359        F  0.59934537  0.78696213  0.49566422    -0.13500
F360        F  0.52592409  0.85915532  0.58766810    -0.15800
F361        F  0.64865040  0.76936489  0.54778822    -0.14300
F362        F  0.59260455  0.74824442  0.64734680    -0.14300
F363        F  0.73472979  0.80878410  0.64929807    -0.15700
C364        C  0.33116743  0.83565240  0.31976106     0.14300
C365        C  0.34143847  0.80844790  0.29128757     0.01300
C366        C  0.37704698  0.79158766  0.29109176     0.16300
C367        C  0.40204681  0.80152881  0.31914054     0.25700
C368        C  0.39193395  0.82875481  0.34779723    -0.40700
C369        C  0.35627165  0.84588597  0.34774506     0.32700
C370        C  0.31517385  0.79741851  0.26164237     0.01300
F371        F  0.38722728  0.76474443  0.26410231    -0.13000
F372        F  0.34602175  0.87314811  0.37429028    -0.13500
C373        C  0.32242832  0.80806119  0.22564447     0.16300
C374        C  0.29844890  0.79632974  0.19718000     0.25700
C375        C  0.26727134  0.77330257  0.20428427    -0.40600
C376        C  0.26009775  0.76245937  0.24025222     0.32600
C377        C  0.28370223  0.77479414  0.26884978     0.14300
F378        F  0.35287809  0.82967048  0.21814205    -0.13000
F379        F  0.23011750  0.74015848  0.24770411    -0.13500
F380        F  0.30623993  0.80641236  0.16248177    -0.15800
F381        F  0.27642125  0.76389306  0.30340282    -0.14300
F382        F  0.29701419  0.85267742  0.32013355    -0.14300
F383        F  0.43567103  0.78343802  0.31904380    -0.15700
C384        C  0.80517624  0.13029102  0.77159759     0.14300
C385        C  0.84332539  0.12941502  0.76295246     0.01300
C386        C  0.85558263  0.14389675  0.72974874     0.16300
C387        C  0.83049166  0.16205296  0.70701012     0.25700
C388        C  0.79258381  0.16702759  0.71769396    -0.40700
C389        C  0.78002469  0.14809280  0.74892445     0.32700
C390        C  0.86996026  0.11345083  0.78893840     0.01300
F391        F  0.89199887  0.14076459  0.71945709    -0.13000
F392        F  0.74318014  0.14690514  0.75774396    -0.13500
C393        C  0.88923070  0.07876001  0.77991548     0.16300
C394        C  0.91158841  0.06195683  0.80596175     0.25700
C395        C  0.91517360  0.07959747  0.84178413    -0.40600
C396        C  0.89689338  0.11539102  0.85004089     0.32600
C397        C  0.87458230  0.13203963  0.82384862     0.14300
F398        F  0.88510239  0.06022193  0.74634032    -0.13000
F399        F  0.89942832  0.13380888  0.88382202    -0.13500
F400        F  0.92859648  0.02761471  0.79627393    -0.15800
F401        F  0.85686010  0.16619532  0.83273292    -0.14300
F402        F  0.79222062  0.11363691  0.80208572    -0.14300
F403        F  0.84335309  0.17245542  0.67390556    -0.15700
C404        C  0.60665399  0.38684017  0.74027223     0.14300
C405        C  0.61188475  0.35434870  0.76117247     0.01300
C406        C  0.59236974  0.35157788  0.79444034     0.16300
C407        C  0.56722996  0.38070322  0.80638760     0.25700
C408        C  0.56172072  0.41308817  0.78538302    -0.40700
C409        C  0.58191610  0.41630785  0.75254779     0.32700
C410        C  0.63694749  0.32276387  0.74773885     0.01300
F411        F  0.59776712  0.32069447  0.81525771    -0.13000
F412        F  0.57712117  0.44769100  0.73227173    -0.13500
C413        C  0.67448558  0.32285287  0.75789699     0.16300
C414        C  0.69845676  0.29333656  0.74408361     0.25700
C415        C  0.68504567  0.26335058  0.71991437    -0.40600
C416        C  0.64723061  0.26332399  0.71017670     0.32600
C417        C  0.62333881  0.29270210  0.72417694     0.14300
F418        F  0.68800060  0.35201295  0.78052979    -0.13000
F419        F  0.63330959  0.23495487  0.68702065    -0.13500
F420        F  0.73509093  0.29519719  0.75284221    -0.15800
F421        F  0.58693006  0.29212188  0.71444973    -0.14300
F422        F  0.62544983  0.38984415  0.70802979    -0.14300
F423        F  0.54894123  0.37795931  0.83893321    -0.15700
C424        C  0.82995966  0.90134130  0.13643784     0.14300
C425        C  0.81824682  0.90081981  0.09983261     0.01300
C426        C  0.78262346  0.88636021  0.09132855     0.16300
C427        C  0.76053390  0.86964764  0.11817475     0.25700
C428        C  0.77430548  0.86542792  0.15399858    -0.40700
C429        C  0.80787472  0.88479438  0.16335354     0.32700
C430        C  0.84239246  0.91713254  0.07102145     0.01300
F431        F  0.76931706  0.88790561  0.05674022    -0.13000
F432        F  0.81970580  0.88732457  0.19862596    -0.13500
C433        C  0.87818289  0.90185354  0.06303878     0.16300
C434        C  0.90151843  0.91859359  0.03705727     0.25700
C435        C  0.88940055  0.95097022  0.01834690    -0.40600
C436        C  0.85282781  0.96508738  0.02561231     0.32600
C437        C  0.82991589  0.94861092  0.05177623     0.14300
F438        F  0.89063760  0.87078491  0.08064375    -0.13000
F439        F  0.83929478  0.99592999  0.00839222    -0.13500
F440        F  0.93623889  0.90366355  0.03106608    -0.15800
F441        F  0.79590455  0.96461508  0.05944196    -0.14300
F442        F  0.86279032  0.91821027  0.14622849    -0.14300
F443        F  0.72516793  0.85955217  0.10915191    -0.15700
C444        C  0.67466270  0.69276165  0.14565198     0.14300
C445        C  0.64145450  0.68830523  0.16566747     0.01300
C446        C  0.63174151  0.71570859  0.19410476     0.16300
C447        C  0.65472285  0.74765823  0.20207313     0.25700
C448        C  0.68784082  0.75241930  0.18179409    -0.40700
C449        C  0.69779247  0.72452827  0.15372763     0.32700
C450        C  0.61571346  0.65651076  0.15522989     0.01300
F451        F  0.59942506  0.71207654  0.21335864    -0.13000
F452        F  0.73038864  0.72743993  0.13480776    -0.13500
C453        C  0.60826916  0.62688503  0.17916961     0.16300
C454        C  0.58321745  0.59724410  0.16899816     0.25700
C455        C  0.56505883  0.59741112  0.13514192    -0.40600
C456        C  0.57254442  0.62706489  0.11133683     0.32600
C457        C  0.59786552  0.65630321  0.12121664     0.14300
F458        F  0.62552769  0.62655628  0.21207655    -0.13000
F459        F  0.55585726  0.62710265  0.07814776    -0.13500
F460        F  0.57610947  0.56876149  0.19228161    -0.15800
F461        F  0.60471077  0.68474748  0.09778959    -0.14300
F462        F  0.68473367  0.66613230  0.11843794    -0.14300
F463        F  0.64401277  0.77449726  0.22884762    -0.15700
C464        C  0.66933865  0.85098125  0.33024280     0.14300
C465        C  0.63313676  0.86205129  0.32090378     0.01300
C466        C  0.62550324  0.86948449  0.28423429     0.16300
C467        C  0.65334273  0.86485937  0.25708386     0.25700
C468        C  0.68921893  0.85262209  0.26620621    -0.40700
C469        C  0.69713184  0.84610918  0.30301465     0.32700
C470        C  0.60235055  0.86256879  0.34839384     0.01300
F471        F  0.59058527  0.87975197  0.27456185    -0.13000
F472        F  0.73142360  0.83344216  0.31225106    -0.13500
C473        C  0.60078010  0.89045360  0.37794892     0.16300
C474        C  0.56987803  0.89220595  0.40199684     0.25700
C475        C  0.53954361  0.86647102  0.39654088    -0.40600
C476        C  0.54424162  0.83525760  0.36979521     0.32600
C477        C  0.57443378  0.83431393  0.34523451     0.14300
F478        F  0.62912653  0.91605458  0.38343327    -0.13000
F479        F  0.52134116  0.80396247  0.36866359    -0.13500
F480        F  0.57041490  0.91811266  0.43142502    -0.15800
F481        F  0.57709113  0.80486060  0.31892848    -0.14300
F482        F  0.67714078  0.84267854  0.36527473    -0.14300
F483        F  0.64450805  0.86938223  0.22148787    -0.15700
C484        C  0.86661130  0.59315700  0.58384654     0.14300
C485        C  0.83641390  0.61917502  0.58266521     0.01300
C486        C  0.81754240  0.62183586  0.54953901     0.16300
C487        C  0.82808967  0.59889292  0.51842425     0.25700
C488        C  0.85926397  0.57358469  0.51855134    -0.40700
C489        C  0.87770657  0.57025543  0.55230915     0.32700
C490        C  0.82222311  0.64178109  0.61604849     0.01300
F491        F  0.78717098  0.64519791  0.54778354    -0.13000
F492        F  0.90404121  0.54264689  0.55611999    -0.13500
C493        C  0.81819180  0.68238580  0.61577306     0.16300
C494        C  0.80030628  0.70330072  0.64496154     0.25700
C495        C  0.78628573  0.68420157  0.67518699    -0.40600
C496        C  0.79137193  0.64387517  0.67623898     0.32600
C497        C  0.80893368  0.62274976  0.64676206     0.14300
F498        F  0.83111983  0.70175718  0.58685332    -0.13000
F499        F  0.77974180  0.62498331  0.70586397    -0.13500
F500        F  0.79610510  0.74233641  0.64350810    -0.15800
F501        F  0.81167073  0.58353213  0.64758387    -0.14300
F502        F  0.88486941  0.58925738  0.61581103    -0.14300
F503        F  0.80584459  0.59970196  0.48862721    -0.15700
C504        C  0.74675293  0.30312285  0.57030841     0.14300
C505        C  0.77299616  0.33175391  0.58029094     0.01300
C506        C  0.79234813  0.32967051  0.61328507     0.16300
C507        C  0.78573761  0.29913009  0.63605900     0.25700
C508        C  0.76015295  0.26967798  0.62575572    -0.40700
C509        C  0.74042303  0.27220467  0.59279719     0.32700
C510        C  0.78083286  0.36366481  0.55616628     0.01300
F511        F  0.81724840  0.35767510  0.62367775    -0.13000
F512        F  0.71545904  0.24448159  0.58194932    -0.13500
C513        C  0.75659386  0.39564020  0.55563336     0.16300
C514        C  0.76570684  0.42720723  0.53475435     0.25700
C515        C  0.79882717  0.42679336  0.51385603    -0.40600
C516        C  0.82249316  0.39423610  0.51364884     0.32600
C517        C  0.81362475  0.36296237  0.53481416     0.14300
F518        F  0.72456639  0.39649608  0.57587156    -0.13000
F519        F  0.85477723  0.39336632  0.49383452    -0.13500
F520        F  0.74220473  0.45806595  0.53460233    -0.15800
F521        F  0.83716395  0.33207949  0.53480186    -0.14300
F522        F  0.72764058  0.30491586  0.53854863    -0.14300
F523        F  0.80328403  0.29925900  0.66883303    -0.15700
C524        C  0.86480437  0.66294372  0.31637228     0.14300
C525        C  0.83886314  0.69205709  0.32686820     0.01300
C526        C  0.82417399  0.69410405  0.36276557     0.16300
C527        C  0.83370518  0.66605303  0.38733236     0.25700
C528        C  0.85837417  0.63557240  0.37636711    -0.40700
C529        C  0.87479294  0.63517031  0.34100583     0.32700
C530        C  0.82358200  0.71732566  0.29932902     0.01300
F531        F  0.79882316  0.72198030  0.37325687    -0.13000
F532        F  0.89996752  0.60733645  0.33000847    -0.13500
C533        C  0.79506014  0.70316230  0.27628592     0.16300
C534        C  0.77752787  0.72767434  0.25261736     0.25700
C535        C  0.78860260  0.76667644  0.25127524    -0.40600
C536        C  0.81839596  0.78037599  0.27308033     0.32600
C537        C  0.83555135  0.75590460  0.29727371     0.14300
F538        F  0.78349098  0.66577364  0.27754472    -0.13000
F539        F  0.82967647  0.81787760  0.27218076    -0.13500
F540        F  0.74968619  0.71324097  0.23100622    -0.15800
F541        F  0.86326524  0.76999273  0.31921053    -0.14300
F542        F  0.87943422  0.66064493  0.28180505    -0.14300
F543        F  0.81668253  0.66720099  0.42080338    -0.15700
C544        C  0.12608783  0.17789738  0.78181268     0.14300
C545        C  0.12563905  0.17269826  0.81963422     0.01300
C546        C  0.15328602  0.19036136  0.84160094     0.16300
C547        C  0.18073008  0.21341896  0.82620803     0.25700
C548        C  0.18022196  0.22085302  0.78834838    -0.40700
C549        C  0.15325955  0.20113554  0.76626522     0.32700
C550        C  0.09852786  0.14595923  0.83573026     0.01300
F551        F  0.15493019  0.18352758  0.87785928    -0.13000
F552        F  0.15355858  0.20362950  0.72924055    -0.13500
C553        C  0.09890932  0.10636978  0.82433302     0.16300
C554        C  0.07523056  0.08032319  0.84100379     0.25700
C555        C  0.05109439  0.09329532  0.86990972    -0.40600
C556        C  0.05005113  0.13317325  0.88070013     0.32600
C557        C  0.07354140  0.15930611  0.86366266     0.14300
F558        F  0.12368459  0.09257654  0.79829691    -0.13000
F559        F  0.02652723  0.14678227  0.90794345    -0.13500
F560        F  0.07767740  0.04201612  0.83032221    -0.15800
F561        F  0.07225956  0.19758127  0.87470616    -0.14300
F562        F  0.10025573  0.16011575  0.75979162    -0.14300
F563        F  0.20911866  0.22524660  0.84824414    -0.15700
C564        C  0.31594010  0.38639086  0.79721445     0.14300
C565        C  0.33401406  0.37724543  0.82959357     0.01300
C566        C  0.32504438  0.34260229  0.84603176     0.16300
C567        C  0.29949739  0.31669562  0.82954042     0.25700
C568        C  0.28227368  0.32519283  0.79638555    -0.40700
C569        C  0.29006944  0.36078219  0.78092181     0.32700
C570        C  0.36379794  0.40294106  0.84451355     0.01300
F571        F  0.34141882  0.33364670  0.87783487    -0.13000
F572        F  0.27246986  0.37108135  0.75019469    -0.13500
C573        C  0.35634124  0.44211532  0.85442966     0.16300
C574        C  0.38570044  0.46795206  0.86148272     0.25700
C575        C  0.42295856  0.45540180  0.85627786    -0.40600
C576        C  0.42950605  0.41499601  0.85509582     0.32600
C577        C  0.40040439  0.38904659  0.84724335     0.14300
F578        F  0.32069994  0.45539351  0.85660150    -0.13000
F579        F  0.46356398  0.40050316  0.86255281    -0.13500
F580        F  0.37759631  0.50486717  0.87399788    -0.15800
F581        F  0.40825319  0.35071319  0.84069822    -0.14300
F582        F  0.32436882  0.41958720  0.78060391    -0.14300
F583        F  0.29284793  0.28260563  0.84528101    -0.15700
C584        C  0.88535246  0.11851478  0.09577729     0.14300
C585        C  0.87609155  0.15509742  0.08343347     0.01300
C586        C  0.88933799  0.16557067  0.04906118     0.16300
C587        C  0.91094393  0.13966942  0.02695138     0.25700
C588        C  0.91960301  0.10240598  0.03866410    -0.40700
C589        C  0.90690930  0.09233414  0.07363168     0.32700
C590        C  0.85184801  0.18221947  0.10578702     0.01300
F591        F  0.88016531  0.20052876  0.03628551    -0.13000
F592        F  0.91405178  0.05667834  0.08592983    -0.13500
C593        C  0.86505268  0.21898831  0.11757364     0.16300
C594        C  0.84166043  0.24570788  0.13675756     0.25700
C595        C  0.80464741  0.23552622  0.14631474    -0.40600
C596        C  0.79099853  0.19933507  0.13202021     0.32600
C597        C  0.81453922  0.17276938  0.11269042     0.14300
F598        F  0.90066906  0.22935576  0.10985679    -0.13000
F599        F  0.75447009  0.18995734  0.13564970    -0.13500
F600        F  0.85499411  0.28217227  0.14344902    -0.15800
F601        F  0.80049939  0.13826030  0.09947700    -0.14300
F602        F  0.87321127  0.10805999  0.12920061    -0.14300
F603        F  0.92258051  0.15096113  0.99364005    -0.15700
C604        C  0.61543464  0.43461355  0.08230064     0.14300
C605        C  0.61053717  0.39745136  0.09568065     0.01300
C606        C  0.57457132  0.38126696  0.09480001     0.16300
C607        C  0.54398671  0.40315413  0.08433671     0.25700
C608        C  0.54787515  0.44297146  0.07820325    -0.40700
C609        C  0.58450435  0.45672987  0.07275352     0.32700
C610        C  0.64244809  0.37594164  0.11102494     0.01300
F611        F  0.56860733  0.34459895  0.10521071    -0.13000
F612        F  0.59044810  0.49191090  0.05882565    -0.13500
C613        C  0.66428539  0.39361194  0.13915181     0.16300
C614        C  0.69272572  0.37281622  0.15539309     0.25700
C615        C  0.69967228  0.33369190  0.14428928    -0.40600
C616        C  0.67794964  0.31604417  0.11609241     0.32600
C617        C  0.65007639  0.33706942  0.09930682     0.14300
F618        F  0.65733365  0.43076803  0.15178958    -0.13000
F619        F  0.68265522  0.27789057  0.10567260    -0.13500
F620        F  0.71367181  0.39114183  0.18183029    -0.15800
F621        F  0.63050384  0.31929612  0.07152515    -0.14300
F622        F  0.65014365  0.44970465  0.07887386    -0.14300
F623        F  0.51142347  0.38439390  0.07767335    -0.15700
C624        C  0.86895490  0.41775710  0.34281088     0.14300
C625        C  0.83565851  0.42605366  0.32488932     0.01300
C626        C  0.81466037  0.45847864  0.33717088     0.16300
C627        C  0.82600319  0.48178682  0.36729443     0.25700
C628        C  0.85935481  0.47395873  0.38604670    -0.40700
C629        C  0.88028745  0.44084836  0.37370854     0.32700
C630        C  0.82037253  0.39919742  0.29575073     0.01300
F631        F  0.78210560  0.46683959  0.32068323    -0.08800
F632        F  0.90922341  0.42805119  0.39314748    -0.13500
C633        C  0.78579807  0.38120830  0.30133311     0.16300
C634        C  0.77026669  0.35665588  0.27382860     0.25700
C635        C  0.78891141  0.34975104  0.23992648    -0.40600
C636        C  0.82322466  0.36871490  0.23407965     0.32600
C637        C  0.83896524  0.39282594  0.26192229     0.14300
F638        F  0.76738245  0.38679588  0.33396694    -0.13000
F639        F  0.84146796  0.36425901  0.20125339    -0.13500
F640        F  0.73785917  0.33834742  0.28128580    -0.15800
F641        F  0.87203681  0.41049801  0.25563908    -0.14300
F642        F  0.88920554  0.38575995  0.33188294    -0.14300
F643        F  0.80261473  0.51079093  0.37976328    -0.15700
C644        C  0.67029408  0.14147114  0.56658632     0.14300
C645        C  0.63338275  0.13464343  0.57784113     0.01300
C646        C  0.62356518  0.13989413  0.61522734     0.16300
C647        C  0.65002616  0.15292262  0.64083646     0.25700
C648        C  0.68628292  0.16151640  0.62923223    -0.40700
C649        C  0.69662875  0.15480057  0.59222175     0.32700
C650        C  0.60426887  0.12616573  0.55030600     0.01300
F651        F  0.58785002  0.13459590  0.62655145    -0.13000
F652        F  0.73186970  0.16252427  0.58081426    -0.13500
C653        C  0.58277979  0.09225013  0.55080306     0.16300
C654        C  0.55333712  0.08602557  0.52622512     0.25700
C655        C  0.54574060  0.11306884  0.49955830    -0.40600
C656        C  0.56545020  0.14876872  0.50213327     0.32600
C657        C  0.59509259  0.15451659  0.52605307     0.14300
F658        F  0.58938513  0.06585281  0.57618949    -0.13000
F659        F  0.55445774  0.17952216  0.48321662    -0.13500
F660        F  0.52998857  0.05621712  0.53202835    -0.15800
F661        F  0.61340600  0.18902492  0.52715096    -0.14300
F662        F  0.68041577  0.13643830  0.53062630    -0.14300
F663        F  0.64004565  0.15815467  0.67679161    -0.15700
C664        C  0.35303910  0.23368342  0.67273422     0.14300
C665        C  0.34306429  0.20505516  0.64573737     0.01300
C666        C  0.30844435  0.18651187  0.64846856     0.16300
C667        C  0.28317679  0.19792145  0.67661686     0.25700
C668        C  0.29239314  0.22778662  0.70291269    -0.40700
C669        C  0.32806599  0.24471260  0.70130323     0.32700
C670        C  0.36799810  0.19535260  0.61387196     0.01300
F671        F  0.29846988  0.15849345  0.62280012    -0.13000
F672        F  0.33872142  0.27211494  0.72729458    -0.13500
C673        C  0.38730180  0.15986418  0.61116937     0.16300
C674        C  0.40955339  0.14992066  0.58026643     0.25700
C675        C  0.41256154  0.17514387  0.55136295    -0.40600
C676        C  0.39296388  0.21049780  0.55390244     0.32600
C677        C  0.37107357  0.22071030  0.58512056     0.14300
F678        F  0.38440640  0.13478852  0.63843053    -0.13000
F679        F  0.39544613  0.23520734  0.52633267    -0.13500
F680        F  0.42733685  0.11507144  0.57797398    -0.15800
F681        F  0.35226478  0.25498332  0.58705589    -0.14300
F682        F  0.38683181  0.25120173  0.67117292    -0.14300
F683        F  0.24887901  0.18140386  0.67667934    -0.15700
C684        C  0.59314818  0.17984943  0.29981951     0.14300
C685        C  0.61956237  0.20673371  0.31406525     0.01300
C686        C  0.61959020  0.21599343  0.35216705     0.16300
C687        C  0.59436517  0.19822423  0.37552157     0.25700
C688        C  0.56800179  0.17135863  0.36127240    -0.40700
C689        C  0.56740826  0.16266062  0.32315445     0.32700
C690        C  0.64744208  0.22446526  0.28936379     0.01300
F691        F  0.64377297  0.24270904  0.36679474    -0.13000
F692        F  0.54289530  0.13622314  0.30870393    -0.13500
C693        C  0.63593748  0.24338849  0.25815597     0.16300
C694        C  0.66225809  0.25873384  0.23425802     0.25700
C695        C  0.70048462  0.25546935  0.24109725    -0.40600
C696        C  0.71210537  0.23738532  0.27255111     0.32600
C697        C  0.68587695  0.22199795  0.29646945     0.14300
F698        F  0.59915449  0.24707258  0.25081188    -0.13000
F699        F  0.74895811  0.23455858  0.28001639    -0.13500
F700        F  0.65047614  0.27553551  0.20367441    -0.15800
F701        F  0.69814661  0.20358402  0.32596710    -0.14300
F702        F  0.59308524  0.16917463  0.26340069    -0.14300
F703        F  0.59525981  0.20782457  0.41211523    -0.15700
C704        C  0.13348970  0.93886014  0.83797873     0.14300
C705        C  0.12276410  0.90173770  0.82406074     0.01300
C706        C  0.09168261  0.88391527  0.83968533     0.16300
C707        C  0.07047621  0.90357719  0.86733561     0.25700
C708        C  0.07982927  0.94169503  0.87997368    -0.40700
C709        C  0.11237663  0.95860459  0.86580190     0.32700
C710        C  0.14286964  0.88189568  0.79240582     0.01300
F711        F  0.08145870  0.84751880  0.82764341    -0.13000
F712        F  0.12282462  0.99505862  0.87739367    -0.13500
C713        C  0.18097815  0.87329510  0.79422276     0.16300
C714        C  0.19899021  0.85225515  0.76513653     0.25700
C715        C  0.17883423  0.83741909  0.73422936    -0.40600
C716        C  0.14157133  0.85013515  0.73096260     0.32600
C717        C  0.12375118  0.87145330  0.75997246     0.14300
F718        F  0.20059634  0.88424366  0.82467709    -0.13000
F719        F  0.12260972  0.84401966  0.69924460    -0.13500
F720        F  0.23624558  0.84615964  0.76754882    -0.15800
F721        F  0.08770527  0.88243385  0.75619139    -0.14300
F722        F  0.16330137  0.95687218  0.82329299    -0.14300
F723        F  0.04018665  0.88552696  0.88104955    -0.15700
C724        C  0.33708341  0.62512518  0.77920340     0.14300
C725        C  0.35051233  0.64874948  0.75194775     0.01300
C726        C  0.38855772  0.64725577  0.74232681     0.16300
C727        C  0.41282420  0.62235520  0.75975078     0.25700
C728        C  0.39949763  0.59901259  0.78757379    -0.40700
C729        C  0.36127873  0.60075758  0.79702167     0.32700
C730        C  0.32484776  0.67628084  0.73521442     0.01300
F731        F  0.40209881  0.66974123  0.71587732    -0.13000
F732        F  0.34748510  0.57995744  0.82457974    -0.13500
C733        C  0.32719610  0.71620294  0.74484561     0.16300
C734        C  0.30061557  0.74194186  0.73238087     0.25700
C735        C  0.27155149  0.72828291  0.70952801    -0.40600
C736        C  0.26991267  0.68853287  0.69885757     0.32600
C737        C  0.29611297  0.66262379  0.71199746     0.14300
F738        F  0.35448426  0.73003402  0.76747194    -0.13000
F739        F  0.24204134  0.67457297  0.67706818    -0.13500
F740        F  0.30322127  0.78032034  0.74267276    -0.15800
F741        F  0.29312606  0.62409178  0.70260818    -0.14300
F742        F  0.30057334  0.62664882  0.78942207    -0.14300
F743        F  0.44910234  0.62047782  0.74885618    -0.15700
C744        C  0.36305078  0.82472379  0.52242768     0.14300
C745        C  0.35504057  0.85294940  0.55049927     0.01300
C746        C  0.37756890  0.88623835  0.55392878     0.16300
C747        C  0.40729907  0.89141015  0.52906199     0.25700
C748        C  0.41419455  0.86403960  0.49933547    -0.40700
C749        C  0.39306229  0.82923209  0.49841361     0.32700
C750        C  0.32676957  0.84403482  0.57889767     0.01300
F751        F  0.37197604  0.91273126  0.58246329    -0.13000
F752        F  0.40251875  0.79810290  0.47570931    -0.13500
C753        C  0.33360941  0.81343104  0.60173442     0.16300
C754        C  0.30616216  0.80138934  0.62605808     0.25700
C755        C  0.27106902  0.81965020  0.62812180    -0.40600
C756        C  0.26432426  0.85087211  0.60574531     0.32600
C757        C  0.29200500  0.86296738  0.58126822     0.14300
F758        F  0.36700514  0.79479363  0.60006767    -0.13000
F759        F  0.23047554  0.86857293  0.60651103    -0.13500
F760        F  0.31426283  0.77213544  0.64801849    -0.15800
F761        F  0.28440900  0.89208958  0.55896139    -0.14300
F762        F  0.34249058  0.79167705  0.51918516    -0.14300
F763        F  0.43093732  0.92146174  0.53604213    -0.15700
C764        C  0.17192519  0.37811518  0.67772232     0.14300
C765        C  0.18657100  0.37268904  0.64194933     0.01300
C766        C  0.21177241  0.34223381  0.63345270     0.16300
C767        C  0.22216920  0.31729104  0.66045348     0.25700
C768        C  0.20684763  0.32208202  0.69606730    -0.40700
C769        C  0.18181333  0.35276038  0.70460894     0.32700
C770        C  0.17446708  0.39765566  0.61288907     0.01300
F771        F  0.22590331  0.33647904  0.59884987    -0.13000
F772        F  0.16743632  0.35844051  0.73911044    -0.13500
C773        C  0.19226409  0.43317131  0.60776002     0.16300
C774        C  0.18213995  0.45549688  0.57857735     0.25700
C775        C  0.15430675  0.44234347  0.55406160    -0.40600
C776        C  0.13571050  0.40734536  0.56012778     0.32600
C777        C  0.14582956  0.38513778  0.58927175     0.14300
F778        F  0.21996076  0.44568194  0.63051366    -0.13000
F779        F  0.10727797  0.39502194  0.53823859    -0.13500
F780        F  0.20032663  0.48928086  0.57345641    -0.15800
F781        F  0.12784641  0.35122291  0.59439652    -0.14300
F782        F  0.14776584  0.40766713  0.68638789    -0.14300
F783        F  0.24626410  0.28773850  0.65152429    -0.15700
C784        C  0.16714353  0.62534910  0.31943999     0.14300
C785        C  0.14467006  0.62300588  0.28816891     0.01300
C786        C  0.11115148  0.60215586  0.28864692     0.16300
C787        C  0.10051213  0.58320483  0.31996091     0.25700
C788        C  0.12307720  0.58531863  0.35116686    -0.40700
C789        C  0.15635729  0.60663337  0.35082822     0.32700
C790        C  0.15581794  0.64330293  0.25541809     0.01300
F791        F  0.08899535  0.59999109  0.25869927    -0.13000
F792        F  0.17889118  0.60815179  0.38049328    -0.13500
C793        C  0.18390529  0.62797081  0.23172568     0.16300
C794        C  0.19600167  0.64861878  0.20189703     0.25700
C795        C  0.18017592  0.68498735  0.19549720    -0.40600
C796        C  0.15161446  0.69988500  0.21923914     0.32600
C797        C  0.13943088  0.67904116  0.24876875     0.14300
F798        F  0.19987005  0.59322659  0.23782752    -0.13000
F799        F  0.13711637  0.73579802  0.21544236    -0.13500
F800        F  0.22332178  0.63311307  0.17955681    -0.15800
F801        F  0.11266464  0.69449396  0.27188381    -0.14300
F802        F  0.19940964  0.64586567  0.31949647    -0.14300
F803        F  0.06804256  0.56309847  0.32013667    -0.15700
C804        C  0.14845861  0.63100669  0.52603317     0.14300
C805        C  0.12391370  0.64547685  0.55366694     0.01300
C806        C  0.08891625  0.62771108  0.55715298     0.16300
C807        C  0.07906418  0.59528123  0.53405707     0.25700
C808        C  0.10334778  0.58105597  0.50539792    -0.40700
C809        C  0.13843669  0.59957486  0.50233323     0.32700
C810        C  0.13685653  0.67650941  0.58070050     0.01300
F811        F  0.06465001  0.64100399  0.58386452    -0.13000
F812        F  0.16449355  0.58549059  0.47770075    -0.13500
C813        C  0.14858883  0.71278068  0.56891323     0.16300
C814        C  0.16575907  0.73986855  0.59342702     0.25700
C815        C  0.17116016  0.73129940  0.63015363    -0.40600
C816        C  0.15801236  0.69589314  0.64240379     0.32600
C817        C  0.14130123  0.66856125  0.61783368     0.14300
F818        F  0.14383901  0.72168875  0.53348911    -0.13000
F819        F  0.16230698  0.68738497  0.67799059    -0.13500
F820        F  0.17728128  0.77443257  0.58132239    -0.15800
F821        F  0.13108933  0.63355835  0.62989910    -0.14300
F822        F  0.18332809  0.64591312  0.52333978    -0.14300
F823        F  0.04752919  0.57624129  0.54259331    -0.15700
C824        C  0.13290724  0.10564902  0.06574601     0.14300
C825        C  0.11250174  0.12342171  0.09523823     0.01300
C826        C  0.07343424  0.12228665  0.09436518     0.16300
C827        C  0.05498446  0.10288603  0.06495150     0.25700
C828        C  0.07529739  0.08414457  0.03551435    -0.40700
C829        C  0.11461748  0.08630463  0.03617687     0.32700
C830        C  0.13202771  0.14266151  0.12715174     0.01300
F831        F  0.05309463  0.13943906  0.12246258    -0.13000
F832        F  0.13561370  0.06882581  0.00873327    -0.13500
C833        C  0.13862567  0.18273412  0.12876356     0.16300
C834        C  0.15760818  0.20077833  0.15851154     0.25700
C835        C  0.17171988  0.17903134  0.18721325    -0.40600
C836        C  0.16229766  0.13899994  0.18651778     0.32600
C837        C  0.14326127  0.12115173  0.15659742     0.14300
F838        F  0.12656796  0.20452772  0.10140251    -0.13000
F839        F  0.16883744  0.11713421  0.21543279    -0.13500
F840        F  0.16204952  0.23991795  0.15918908    -0.15800
F841        F  0.13500223  0.08273861  0.15675139    -0.14300
F842        F  0.17072241  0.10660601  0.06584554    -0.14300
F843        F  0.01716424  0.10201644  0.06577584    -0.15700
C844        C  0.34911442  0.40131053  0.18729472     0.14300
C845        C  0.35297259  0.36078536  0.18135464     0.01300
C846        C  0.38301237  0.34611977  0.15970652     0.16300
C847        C  0.40807659  0.37128837  0.14343403     0.25700
C848        C  0.40402109  0.41195720  0.14867027    -0.40700
C849        C  0.37451985  0.42664629  0.17142670     0.32700
C850        C  0.32454428  0.33372938  0.19562803     0.01300
F851        F  0.38700031  0.30723200  0.15268787    -0.13000
F852        F  0.37028735  0.46548959  0.17853351    -0.13500
C853        C  0.28772623  0.33473110  0.18299388     0.16300
C854        C  0.26135174  0.30778567  0.19427259     0.25700
C855        C  0.27108403  0.27930635  0.21864146    -0.40600
C856        C  0.30778056  0.27856225  0.23175325     0.32600
C857        C  0.33433466  0.30540626  0.22017899     0.14300
F858        F  0.27762588  0.36102568  0.15861087    -0.13000
F859        F  0.31834665  0.25082296  0.25448017    -0.13500
F860        F  0.22613120  0.30947604  0.18128135    -0.15800
F861        F  0.36973749  0.30358343  0.23268023    -0.14300
F862        F  0.32055458  0.41636624  0.20836975    -0.14300
F863        F  0.43507374  0.35566996  0.12074558    -0.15700
C864        C  0.35037928  0.12374914  0.39777665     0.14300
C865        C  0.35413841  0.13517119  0.36148746     0.01300
C866        C  0.38958944  0.13248575  0.34466848     0.16300
C867        C  0.42061198  0.12086047  0.36419125     0.25700
C868        C  0.41817870  0.11633577  0.40235802    -0.40700
C869        C  0.38192363  0.11340707  0.41761192     0.32700
C870        C  0.32138176  0.14817885  0.34029884     0.01300
F871        F  0.39439535  0.14121952  0.30908950    -0.13000
F872        F  0.37687893  0.09978033  0.45150464    -0.13500
C873        C  0.29942363  0.18003990  0.35324172     0.16300
C874        C  0.27162274  0.19506126  0.33116253     0.25700
C875        C  0.26503916  0.17875002  0.29539666    -0.40600
C876        C  0.28641763  0.14585098  0.28316747     0.32600
C877        C  0.31365023  0.13056249  0.30552317     0.14300
F878        F  0.30578070  0.19767669  0.38682837    -0.13000
F879        F  0.28275172  0.12936297  0.24873168    -0.13500
F880        F  0.25138498  0.22577858  0.34506045    -0.15800
F881        F  0.33309131  0.09864244  0.29277530    -0.14300
F882        F  0.31616157  0.12207465  0.41387403    -0.14300
F883        F  0.45143641  0.10965118  0.34458144    -0.15700
C884        C  0.14742601  0.40510464  0.36657867     0.14300
C885        C  0.12492036  0.37197402  0.36549801     0.01300
C886        C  0.09308546  0.37196740  0.38847959     0.16300
C887        C  0.08322510  0.40523691  0.41106609     0.25700
C888        C  0.10487682  0.43952292  0.41081027    -0.40700
C889        C  0.13831589  0.43768491  0.38954139     0.32700
C890        C  0.13642412  0.33747453  0.34123580     0.01300
F891        F  0.07178440  0.33954345  0.38940254    -0.13000
F892        F  0.16338975  0.46714881  0.39188396    -0.13500
C893        C  0.15141495  0.30410193  0.35607477     0.16300
C894        C  0.16772732  0.27444398  0.33300533     0.25700
C895        C  0.16991468  0.27792191  0.29479336    -0.40600
C896        C  0.15304766  0.31021125  0.27985526     0.32600
C897        C  0.13659222  0.33969919  0.30281348     0.14300
F898        F  0.15134705  0.30082138  0.39298498    -0.13000
F899        F  0.15331091  0.31362015  0.24294261    -0.13500
F900        F  0.18057947  0.24196986  0.34793102    -0.15800
F901        F  0.12137168  0.37094170  0.28756020    -0.14300
F902        F  0.17934647  0.40539502  0.34618148    -0.14300
F903        F  0.05438266  0.40244294  0.43505442    -0.15700
loop_ 
_geom_bond_atom_site_label_1 
_geom_bond_atom_site_label_2 
_geom_bond_distance 
_geom_bond_site_symmetry_2 
_ccdc_geom_bond_type 
C1            C2   1.543       .  S
C1            C7   1.535       .  S
C1            C5   1.551       .  S
C1          C835   1.552       .  S
C2            H9   1.086       .  S
C2            C3   1.365       .  D
C3            C4   1.543       .  S
C3          C855   1.493       .  S
C4            C8   1.550       .  S
C4            C6   1.550       .  S
C4           H10   1.109       .  S
C5           H11   1.077       .  S
C5            C6   1.376       .  D
C6          C875   1.511       .  S
C7           H12   1.086       .  S
C7            C8   1.365       .  D
C8          C895   1.493       .  S
C13          C15   1.535       .  S
C13          C17   1.532       .  S
C13          C16   1.561       .  S
C13         C888   1.551       .  S
C14          C18   1.533       .  S
C14          C20   1.531       .  S
C14          C19   1.559       .  S
C14         C808   1.548       .  S
C15          C23   1.376       .  A
C15          C18   1.387       .  A
C16          C27   1.391       .  A
C16          C19   1.431       .  A
C17          C31   1.380       .  A
C17          C20   1.395       .  A
C18          C21   1.378       .  A
C19          C25   1.387       .  A
C20          C28   1.381       .  A
C21          N22   1.356       .  A
C21          H34   1.082       .  S
N22          C23   1.354       .  A
N22         C788   1.430       .  S
C23          H24   1.082       .  S
C25          N26   1.350       .  A
C25          H35   1.088       .  S
N26          C27   1.358       .  A
N26         N108   1.417   1_455  S
C27          H33   1.072       .  S
C28          N29   1.351       .  A
C28          H30   1.083       .  S
N29          C31   1.354       .  A
N29         C775   1.437       .  S
C31          H32   1.082       .  S
C36          C37   1.543       .  S
C36          C42   1.547       .  S
C36          C40   1.540       .  S
C36         C715   1.540       .  S
C37          H44   1.086       .  S
C37          C38   1.363       .  D
C38          C39   1.538       .  S
C38         C735   1.484       .  S
C39          C43   1.540       .  S
C39          C41   1.542       .  S
C39          H45   1.111       .  S
C40          H46   1.086       .  S
C40          C41   1.369       .  D
C41         C755   1.490       .  S
C42          H47   1.083       .  S
C42          C43   1.364       .  D
C43         C815   1.483       .  S
C48          C50   1.549       .  S
C48          C52   1.564       .  S
C48          C51   1.551       .  S
C48         C868   1.547       .  S
C49          C53   1.530       .  S
C49          C55   1.536       .  S
C49          C54   1.546       .  S
C49         C655   1.537       .  S
C50          C58   1.389       .  A
C50          C53   1.390       .  A
C51          C62   1.385       .  A
C51          C54   1.406       .  A
C52          C66   1.395       .  A
C52          C55   1.395       .  A
C53          C56   1.375       .  A
C54          C60   1.384       .  A
C55          C63   1.377       .  A
C56          N57   1.353       .  A
C56          H69   1.083       .  S
N57          C58   1.359       .  A
N57         C675   1.439       .  S
C58          H59   1.081       .  S
C60          N61   1.355       .  A
C60          H70   1.080       .  S
N61          C62   1.357       .  A
N61         N155   1.409   1_545  S
C62          H68   1.082       .  S
C63          N64   1.351       .  A
C63          H65   1.082       .  S
N64          C66   1.360       .  A
N64         C688   1.444       .  S
C66          H67   1.080       .  S
C71          C72   1.537       .  S
C71          C77   1.537       .  S
C71          C75   1.542       .  S
C71         C595   1.535       .  S
C72          H79   1.083       .  S
C72          C73   1.364       .  D
C73          C74   1.547       .  S
C73         C635   1.491       .  S
C74          C78   1.541       .  S
C74          C76   1.539       .  S
C74          H80   1.109       .  S
C75          H81   1.086       .  S
C75          C76   1.365       .  D
C76         C695   1.481       .  S
C77          H82   1.086       .  S
C77          C78   1.367       .  D
C78         C615   1.493       .  S
C83          C84   1.543       .  S
C83          C89   1.544       .  S
C83          C87   1.542       .  S
C83         C548   1.538       .  S
C84          H91   1.086       .  S
C84          C85   1.364       .  D
C85          C86   1.531       .  S
C85         C768   1.476       .  S
C86          C90   1.537       .  S
C86          C88   1.534       .  S
C86          H92   1.109       .  S
C87          H93   1.086       .  S
C87          C88   1.368       .  D
C88         C668   1.490       .  S
C89          H94   1.081       .  S
C89          C90   1.365       .  D
C90         C568   1.485       .  S
C95          C97   1.541       .  S
C95          C99   1.535       .  S
C95          C98   1.559       .  S
C95         C488   1.540       .  S
C96         C100   1.529       .  S
C96         C102   1.529       .  S
C96         C101   1.558       .  S
C96         C628   1.536       .  S
C97         C105   1.384       .  A
C97         C100   1.380       .  A
C98         C109   1.387       .  A
C98         C101   1.429       .  A
C99         C113   1.387       .  A
C99         C102   1.392       .  A
C100        C103   1.374       .  A
C101        C107   1.390       .  A
C102        C110   1.380       .  A
C103        N104   1.357       .  A
C103        H116   1.082       .  S
N104        C105   1.362       .  A
N104        C528   1.444       .  S
C105        H106   1.082       .  S
C107        N108   1.351       .  A
C107        H117   1.088       .  S
N108        C109   1.357       .  A
C109        H115   1.072       .  S
C110        N111   1.349       .  A
C110        H112   1.083       .  S
N111        C113   1.353       .  A
N111        C515   1.434       .  S
C113        H114   1.083       .  S
C118        C119   1.548       .  S
C118        C124   1.549       .  S
C118        C122   1.545       .  S
C118        C428   1.543       .  S
C119        H126   1.082       .  S
C119        C120   1.365       .  D
C120        C121   1.528       .  S
C120        C448   1.477       .  S
C121        C125   1.529       .  S
C121        C123   1.529       .  S
C121        H127   1.111       .  S
C122        H128   1.086       .  S
C122        C123   1.370       .  D
C123        C468   1.479       .  S
C124        H129   1.086       .  S
C124        C125   1.363       .  D
C125        C535   1.481       .  S
C130        C131   1.547       .  S
C130        C136   1.549       .  S
C130        C134   1.534       .  S
C130        C388   1.535       .  S
C131        H138   1.086       .  S
C131        C132   1.366       .  D
C132        C133   1.531       .  S
C132        C415   1.482       .  S
C133        C137   1.532       .  S
C133        C135   1.531       .  S
C133        H139   1.110       .  S
C134        H140   1.086       .  S
C134        C135   1.359       .  D
C135        C648   1.467       .  S
C136        H141   1.081       .  S
C136        C137   1.370       .  D
C137        C508   1.485       .  S
C142        C144   1.542       .  S
C142        C146   1.535       .  S
C142        C145   1.559       .  S
C142        C748   1.544       .  S
C143        C147   1.543       .  S
C143        C149   1.527       .  S
C143        C148   1.545       .  S
C143        C475   1.539       .  S
C144        C152   1.382       .  A
C144        C147   1.400       .  A
C145        C156   1.388       .  A
C145        C148   1.408       .  A
C146        C160   1.380       .  A
C146        C149   1.384       .  A
C147        C150   1.385       .  A
C148        C154   1.379       .  A
C149        C157   1.374       .  A
C150        N151   1.353       .  A
C150        H163   1.082       .  S
N151        C152   1.351       .  A
N151        C368   1.440       .  S
C152        H153   1.082       .  S
C154        N155   1.354       .  A
C154        H164   1.081       .  S
N155        C156   1.360       .  A
C156        H162   1.081       .  S
C157        N158   1.359       .  A
C157        H159   1.082       .  S
N158        C160   1.364       .  A
N158        C355   1.448       .  S
C160        H161   1.081       .  S
C165        C166   1.546       .  S
C165        C171   1.550       .  S
C165        C169   1.540       .  S
C165        C315   1.541       .  S
C166        H173   1.085       .  S
C166        C167   1.366       .  D
C167        C168   1.532       .  S
C167        C795   1.485       .  S
C168        C172   1.536       .  S
C168        C170   1.529       .  S
C168        H174   1.111       .  S
C169        H175   1.086       .  S
C169        C170   1.362       .  D
C170        C375   1.476       .  S
C171        H176   1.083       .  S
C171        C172   1.369       .  D
C172        C335   1.477       .  S
C177        C178   1.545       .  S
C177        C183   1.540       .  S
C177        C181   1.531       .  S
C177        C268   1.534       .  S
C178        H185   1.083       .  S
C178        C179   1.364       .  D
C179        C180   1.543       .  S
C179        C495   1.485       .  S
C180        C184   1.545       .  S
C180        C182   1.541       .  S
C180        H186   1.111       .  S
C181        H187   1.087       .  S
C181        C182   1.362       .  D
C182        C348   1.483       .  S
C183        H188   1.085       .  S
C183        C184   1.367       .  D
C184        C288   1.488       .  S
C189        C191   1.544       .  S
C189        C193   1.555       .  S
C189        C192   1.552       .  S
C189        C608   1.543       .  S
C190        C194   1.540       .  S
C190        C196   1.532       .  S
C190        C195   1.537       .  S
C190        C328   1.535       .  S
C191        C199   1.381       .  A
C191        C194   1.395       .  A
C192        C203   1.390       .  A
C192        C195   1.400       .  A
C193        C207   1.389       .  A
C193        C196   1.393       .  A
C194        C197   1.376       .  A
C195        C201   1.378       .  A
C196        C204   1.379       .  A
C197        N198   1.354       .  A
C197        H210   1.083       .  S
N198        C199   1.354       .  A
N198        C455   1.430       .  S
C199        H200   1.081       .  S
C201        N202   1.352   1_554  A
C201        H211   1.081   1_554  S
N202        C203   1.361   1_556  A
N202        N225   1.408       .  S
C203        H209   1.082   1_554  S
C204        N205   1.358       .  A
C204        H206   1.082       .  S
N205        C207   1.362       .  A
N205        C848   1.451       .  S
C207        H208   1.080       .  S
C212        C214   1.538       .  S
C212        C216   1.544       .  S
C212        C215   1.568       .  S
C212        C295   1.543       .  S
C213        C217   1.542       .  S
C213        C219   1.539       .  S
C213        C218   1.532       .  S
C213        C575   1.534       .  S
C214        C222   1.376       .  A
C214        C217   1.391       .  A
C215        C226   1.399       .  A
C215        C218   1.408       .  A
C216        C230   1.385       .  A
C216        C219   1.388       .  A
C217        C220   1.382       .  A
C218        C224   1.372       .  A
C219        C227   1.381       .  A
C220        N221   1.355       .  A
C220        H233   1.080       .  S
N221        C222   1.351       .  A
N221        C408   1.430       .  S
C222        H223   1.083       .  S
C224        N225   1.350       .  A
C224        H234   1.082       .  S
N225        C226   1.361       .  A
C226        H232   1.076       .  S
C227        N228   1.357       .  A
C227        H229   1.081       .  S
N228        C230   1.360       .  A
N228        C728   1.447       .  S
C230        H231   1.082       .  S
O235        C243   1.293       .  A
O235       Co255   2.106   1_454  S
O236        C244   1.268       .  A
O236       Co256   2.010   1_545  S
O237        C245   1.271       .  A
O237       Co257   1.962       .  S
O238        C246   1.263   1_556  A
O238       Co258   1.970       .  S
O239        C245   1.284       .  A
O239       Co256   2.036   1_445  S
O240        C246   1.272       .  A
O240       Co255   2.017   1_554  S
O241        C244   1.264       .  A
O241       Co258   1.981       .  S
O242        C243   1.264   1_556  A
O242       Co257   1.911       .  S
C243        C828   1.499       .  S
C244        C395   1.495       .  S
C245        C555   1.480       .  S
C246        C588   1.486       .  S
O247        C260   1.270       .  A
O247       Co255   1.983   1_565  S
O248        C261   1.257       .  A
O248       Co256   1.975   1_455  S
O249        C262   1.295   1_556  A
O249       Co257   2.098   1_565  S
O250        C263   1.277       .  A
O250       Co258   2.029   1_565  S
O251        C263   1.267       .  A
O251       Co256   1.964       .  S
O252        C262   1.273       .  A
O252       Co255   1.907   1_464  S
O253        C260   1.275   1_545  A
O253       Co258   2.014       .  S
O254        C261   1.261       .  A
O254       Co257   2.010   1_565  S
Co255       O259   2.020       .  S
Co256       O259   2.022   1_565  S
Co257       O259   2.005   1_455  S
Co258       O259   2.027       .  S
C260        C435   1.497   1_556  S
C261        C708   1.488       .  S
C262        C308   1.482       .  S
C263        C275   1.484       .  S
C264        C265   1.400       .  A
C264        C269   1.396       .  A
C264        F282   1.358       .  S
C265        C266   1.400       .  A
C265        C270   1.477       .  S
C266        C267   1.400       .  A
C266        F271   1.358       .  S
C267        C268   1.418       .  A
C267        F283   1.357       .  S
C268        C269   1.417       .  A
C269        F272   1.355       .  S
C270        C273   1.404       .  A
C270        C277   1.402       .  A
C273        C274   1.402       .  A
C273        F278   1.358       .  S
C274        C275   1.413       .  A
C274        F280   1.358       .  S
C275        C276   1.409       .  A
C276        C277   1.396       .  A
C276        F279   1.358       .  S
C277        F281   1.358       .  S
C284        C285   1.405       .  A
C284        C289   1.400       .  A
C284        F302   1.358       .  S
C285        C286   1.409       .  A
C285        C290   1.487       .  S
C286        C287   1.401       .  A
C286        F291   1.358       .  S
C287        C288   1.404       .  A
C287        F303   1.354       .  S
C288        C289   1.409       .  A
C289        F292   1.358       .  S
C290        C293   1.398       .  A
C290        C297   1.407       .  A
C293        C294   1.393       .  A
C293        F298   1.359       .  S
C294        C295   1.422       .  A
C294        F300   1.359       .  S
C295        C296   1.411       .  A
C296        C297   1.407       .  A
C296        F299   1.348       .  S
C297        F301   1.358       .  S
C304        C305   1.407       .  A
C304        C309   1.402       .  A
C304        F322   1.358       .  S
C305        C306   1.409       .  A
C305        C310   1.491       .  S
C306        C307   1.402       .  A
C306        F311   1.358       .  S
C307        C308   1.405       .  A
C307        F323   1.358       .  S
C308        C309   1.408       .  A
C309        F312   1.358   1_554  S
C310        C313   1.406       .  A
C310        C317   1.401       .  A
C313        C314   1.405       .  A
C313        F318   1.358       .  S
C314        C315   1.416       .  A
C314        F320   1.355       .  S
C315        C316   1.419       .  A
C316        C317   1.397       .  A
C316        F319   1.357       .  S
C317        F321   1.358       .  S
C324        C325   1.400       .  A
C324        C329   1.395       .  A
C324        F342   1.358       .  S
C325        C326   1.402       .  A
C325        C330   1.480       .  S
C326        C327   1.403       .  A
C326        F331   1.358       .  S
C327        C328   1.416       .  A
C327        F343   1.356       .  S
C328        C329   1.415       .  A
C329        F332   1.357       .  S
C330        C333   1.406       .  A
C330        C337   1.405       .  A
C333        C334   1.400       .  A
C333        F338   1.358       .  S
C334        C335   1.403       .  A
C334        F340   1.357       .  S
C335        C336   1.404       .  A
C336        C337   1.401       .  A
C336        F339   1.357       .  S
C337        F341   1.358       .  S
C344        C345   1.405       .  A
C344        C349   1.401       .  A
C344        F362   1.358       .  S
C345        C346   1.403       .  A
C345        C350   1.479       .  S
C346        C347   1.398       .  A
C346        F351   1.358       .  S
C347        C348   1.409       .  A
C347        F363   1.358       .  S
C348        C349   1.406       .  A
C349        F352   1.357       .  S
C350        C353   1.403       .  A
C350        C357   1.401       .  A
C353        C354   1.401       .  A
C353        F358   1.358       .  S
C354        C355   1.412       .  A
C354        F360   1.356       .  S
C355        C356   1.413       .  A
C356        C357   1.398       .  A
C356        F359   1.357       .  S
C357        F361   1.358       .  S
C364        C365   1.404       .  A
C364        C369   1.400       .  A
C364        F382   1.358       .  S
C365        C366   1.403       .  A
C365        C370   1.477       .  S
C366        C367   1.397       .  A
C366        F371   1.358       .  S
C367        C368   1.408       .  A
C367        F383   1.357       .  S
C368        C369   1.409       .  A
C369        F372   1.357       .  S
C370        C373   1.405       .  A
C370        C377   1.404       .  A
C373        C374   1.399       .  A
C373        F378   1.358       .  S
C374        C375   1.403       .  A
C374        F380   1.357       .  S
C375        C376   1.405       .  A
C376        C377   1.399       .  A
C376        F379   1.357       .  S
C377        F381   1.358       .  S
C384        C385   1.401       .  A
C384        C389   1.396       .  A
C384        F402   1.358       .  S
C385        C386   1.402       .  A
C385        C390   1.482       .  S
C386        C387   1.402       .  A
C386        F391   1.358       .  S
C387        C388   1.418       .  A
C387        F403   1.355       .  S
C388        C389   1.414       .  A
C389        F392   1.358       .  S
C390        C393   1.401       .  A
C390        C397   1.404       .  A
C393        C394   1.401       .  A
C393        F398   1.358       .  S
C394        C395   1.416       .  A
C394        F400   1.358       .  S
C395        C396   1.412       .  A
C396        C397   1.401       .  A
C396        F399   1.357       .  S
C397        F401   1.358       .  S
C404        C405   1.404       .  A
C404        C409   1.398       .  A
C404        F422   1.358       .  S
C405        C406   1.402       .  A
C405        C410   1.469       .  S
C406        C407   1.396       .  A
C406        F411   1.358       .  S
C407        C408   1.405       .  A
C407        F423   1.357       .  S
C408        C409   1.402       .  A
C409        F412   1.357       .  S
C410        C413   1.402       .  A
C410        C417   1.400       .  A
C413        C414   1.399       .  A
C413        F418   1.358       .  S
C414        C415   1.409       .  A
C414        F420   1.358       .  S
C415        C416   1.407       .  A
C416        C417   1.396       .  A
C416        F419   1.355       .  S
C417        F421   1.358       .  S
C424        C425   1.404       .  A
C424        C429   1.401       .  A
C424        F442   1.358       .  S
C425        C426   1.405       .  A
C425        C430   1.489       .  S
C426        C427   1.402       .  A
C426        F431   1.358       .  S
C427        C428   1.418       .  A
C427        F443   1.356       .  S
C428        C429   1.414       .  A
C429        F432   1.358       .  S
C430        C433   1.408       .  A
C430        C437   1.402       .  A
C433        C434   1.406       .  A
C433        F438   1.358       .  S
C434        C435   1.412       .  A
C434        F440   1.358       .  S
C435        C436   1.416       .  A
C436        C437   1.398       .  A
C436        F439   1.358       .  S
C437        F441   1.358       .  S
C444        C445   1.403       .  A
C444        C449   1.395       .  A
C444        F462   1.358       .  S
C445        C446   1.402       .  A
C445        C450   1.471       .  S
C446        C447   1.397       .  A
C446        F451   1.358       .  S
C447        C448   1.407       .  A
C447        F463   1.358       .  S
C448        C449   1.406       .  A
C449        F452   1.358       .  S
C450        C453   1.405       .  A
C450        C457   1.403       .  A
C453        C454   1.399       .  A
C453        F458   1.358       .  S
C454        C455   1.404       .  A
C454        F460   1.357       .  S
C455        C456   1.403       .  A
C456        C457   1.393       .  A
C456        F459   1.357       .  S
C457        F461   1.358       .  S
C464        C465   1.405       .  A
C464        C469   1.402       .  A
C464        F482   1.358       .  S
C465        C466   1.406       .  A
C465        C470   1.482       .  S
C466        C467   1.400       .  A
C466        F471   1.358       .  S
C467        C468   1.404       .  A
C467        F483   1.358       .  S
C468        C469   1.406       .  A
C469        F472   1.358       .  S
C470        C473   1.403       .  A
C470        C477   1.400       .  A
C473        C474   1.404       .  A
C473        F478   1.357       .  S
C474        C475   1.414       .  A
C474        F480   1.357       .  S
C475        C476   1.419       .  A
C476        C477   1.396       .  A
C476        F479   1.357       .  S
C477        F481   1.359       .  S
C484        C485   1.408       .  A
C484        C489   1.410       .  A
C484        F502   1.358       .  S
C485        C486   1.400       .  A
C485        C490   1.491       .  S
C486        C487   1.393       .  A
C486        F491   1.358       .  S
C487        C488   1.418       .  A
C487        F503   1.358       .  S
C488        C489   1.415       .  A
C489        F492   1.354       .  S
C490        C493   1.408       .  A
C490        C497   1.409       .  A
C493        C494   1.399       .  A
C493        F498   1.358       .  S
C494        C495   1.405       .  A
C494        F500   1.358       .  S
C495        C496   1.405       .  A
C496        C497   1.405       .  A
C496        F499   1.355       .  S
C497        F501   1.358       .  S
C504        C505   1.402       .  A
C504        C509   1.399       .  A
C504        F522   1.358       .  S
C505        C506   1.402       .  A
C505        C510   1.473       .  S
C506        C507   1.397       .  A
C506        F511   1.358       .  S
C507        C508   1.408       .  A
C507        F523   1.358       .  S
C508        C509   1.409       .  A
C509        F512   1.357       .  S
C510        C513   1.404       .  A
C510        C517   1.403       .  A
C513        C514   1.401       .  A
C513        F518   1.358       .  S
C514        C515   1.404       .  A
C514        F520   1.357       .  S
C515        C516   1.406       .  A
C516        C517   1.397       .  A
C516        F519   1.357       .  S
C517        F521   1.358       .  S
C524        C525   1.402       .  A
C524        C529   1.399       .  A
C524        F542   1.358       .  S
C525        C526   1.403       .  A
C525        C530   1.477       .  S
C526        C527   1.400       .  A
C526        F531   1.358       .  S
C527        C528   1.410       .  A
C527        F543   1.357       .  S
C528        C529   1.411       .  A
C529        F532   1.357       .  S
C530        C533   1.403       .  A
C530        C537   1.404       .  A
C533        C534   1.397       .  A
C533        F538   1.358       .  S
C534        C535   1.406       .  A
C534        F540   1.358       .  S
C535        C536   1.407       .  A
C536        C537   1.402       .  A
C536        F539   1.358       .  S
C537        F541   1.357       .  S
C544        C545   1.401       .  A
C544        C549   1.398       .  A
C544        F562   1.358       .  S
C545        C546   1.401       .  A
C545        C550   1.481       .  S
C546        C547   1.399       .  A
C546        F551   1.358       .  S
C547        C548   1.419       .  A
C547        F563   1.354       .  S
C548        C549   1.416       .  A
C549        F552   1.358       .  S
C550        C553   1.404       .  A
C550        C557   1.406       .  A
C553        C554   1.397       .  A
C553        F558   1.358       .  S
C554        C555   1.408       .  A
C554        F560   1.358       .  S
C555        C556   1.408       .  A
C556        C557   1.401       .  A
C556        F559   1.358       .  S
C557        F561   1.358       .  S
C564        C565   1.406       .  A
C564        C569   1.397       .  A
C564        F582   1.358       .  S
C565        C566   1.403       .  A
C565        C570   1.478       .  S
C566        C567   1.398       .  A
C566        F571   1.358       .  S
C567        C568   1.410       .  A
C567        F583   1.358       .  S
C568        C569   1.407       .  A
C569        F572   1.358       .  S
C570        C573   1.402       .  A
C570        C577   1.404       .  A
C573        C574   1.398       .  A
C573        F578   1.358       .  S
C574        C575   1.412       .  A
C574        F580   1.357       .  S
C575        C576   1.410       .  A
C576        C577   1.398       .  A
C576        F579   1.356       .  S
C577        F581   1.358       .  S
C584        C585   1.404       .  A
C584        C589   1.401       .  A
C584        F602   1.358       .  S
C585        C586   1.402       .  A
C585        C590   1.479       .  S
C586        C587   1.396       .  A
C586        F591   1.358       .  S
C587        C588   1.412       .  A
C587        F603   1.358   1_554  S
C588        C589   1.411       .  A
C589        F592   1.358       .  S
C590        C593   1.400       .  A
C590        C597   1.402       .  A
C593        C594   1.397       .  A
C593        F598   1.358       .  S
C594        C595   1.419       .  A
C594        F600   1.356       .  S
C595        C596   1.415       .  A
C596        C597   1.399       .  A
C596        F599   1.357       .  S
C597        F601   1.358       .  S
C604        C605   1.408       .  A
C604        C609   1.404       .  A
C604        F622   1.358       .  S
C605        C606   1.407       .  A
C605        C610   1.495       .  S
C606        C607   1.400       .  A
C606        F611   1.357       .  S
C607        C608   1.410       .  A
C607        F623   1.355       .  S
C608        C609   1.414       .  A
C609        F612   1.358       .  S
C610        C613   1.410       .  A
C610        C617   1.408       .  A
C613        C614   1.403       .  A
C613        F618   1.358       .  S
C614        C615   1.407       .  A
C614        F620   1.358       .  S
C615        C616   1.409       .  A
C616        C617   1.402       .  A
C616        F619   1.358       .  S
C617        F621   1.358       .  S
C624        C625   1.406       .  A
C624        C629   1.406       .  A
C624        F642   1.358       .  S
C625        C626   1.396       .  A
C625        C630   1.480       .  S
C626        C627   1.389       .  A
C626        F631   1.359       .  S
C627        C628   1.419       .  A
C627        F643   1.359       .  S
C628        C629   1.414       .  A
C629        F632   1.352       .  S
C630        C633   1.406       .  A
C630        C637   1.401       .  A
C633        C634   1.397       .  A
C633        F638   1.358       .  S
C634        C635   1.407       .  A
C634        F640   1.356       .  S
C635        C636   1.415       .  A
C636        C637   1.400       .  A
C636        F639   1.358       .  S
C637        F641   1.358       .  S
C644        C645   1.406       .  A
C644        C649   1.397       .  A
C644        F662   1.358       .  S
C645        C646   1.406       .  A
C645        C650   1.476       .  S
C646        C647   1.397       .  A
C646        F651   1.358       .  S
C647        C648   1.401       .  A
C647        F663   1.357       .  S
C648        C649   1.402       .  A
C649        F652   1.358       .  S
C650        C653   1.403       .  A
C650        C657   1.397       .  A
C653        C654   1.403       .  A
C653        F658   1.358       .  S
C654        C655   1.414       .  A
C654        F660   1.352       .  S
C655        C656   1.420       .  A
C656        C657   1.391       .  A
C656        F659   1.358       .  S
C657        F661   1.359       .  S
C664        C665   1.404       .  A
C664        C669   1.401       .  A
C664        F682   1.358       .  S
C665        C666   1.403       .  A
C665        C670   1.480       .  S
C666        C667   1.400       .  A
C666        F671   1.358       .  S
C667        C668   1.409       .  A
C667        F683   1.357       .  S
C668        C669   1.410       .  A
C669        F672   1.358       .  S
C670        C673   1.403       .  A
C670        C677   1.407       .  A
C673        C674   1.399       .  A
C673        F678   1.358       .  S
C674        C675   1.408       .  A
C674        F680   1.357       .  S
C675        C676   1.404       .  A
C676        C677   1.403       .  A
C676        F679   1.357       .  S
C677        F681   1.358       .  S
C684        C685   1.410       .  A
C684        C689   1.403       .  A
C684        F702   1.358       .  S
C685        C686   1.408       .  A
C685        C690   1.493       .  S
C686        C687   1.401       .  A
C686        F691   1.358       .  S
C687        C688   1.408       .  A
C687        F703   1.357       .  S
C688        C689   1.406       .  A
C689        F692   1.357       .  S
C690        C693   1.410       .  A
C690        C697   1.410       .  A
C693        C694   1.402       .  A
C693        F698   1.357       .  S
C694        C695   1.403       .  A
C694        F700   1.358       .  S
C695        C696   1.404       .  A
C696        C697   1.401       .  A
C696        F699   1.358       .  S
C697        F701   1.358       .  S
C704        C705   1.406       .  A
C704        C709   1.402       .  A
C704        F722   1.358       .  S
C705        C706   1.405       .  A
C705        C710   1.486       .  S
C706        C707   1.399       .  A
C706        F711   1.358       .  S
C707        C708   1.410       .  A
C707        F723   1.358       .  S
C708        C709   1.412       .  A
C709        F712   1.358       .  S
C710        C713   1.402       .  A
C710        C717   1.404       .  A
C713        C714   1.401       .  A
C713        F718   1.358       .  S
C714        C715   1.418       .  A
C714        F720   1.358       .  S
C715        C716   1.415       .  A
C716        C717   1.400       .  A
C716        F719   1.356       .  S
C717        F721   1.358       .  S
C724        C725   1.402       .  A
C724        C729   1.399       .  A
C724        F742   1.358       .  S
C725        C726   1.406       .  A
C725        C730   1.483       .  S
C726        C727   1.405       .  A
C726        F731   1.358       .  S
C727        C728   1.410       .  A
C727        F743   1.357       .  S
C728        C729   1.410       .  A
C729        F732   1.357       .  S
C730        C733   1.404       .  A
C730        C737   1.407       .  A
C733        C734   1.399       .  A
C733        F738   1.358       .  S
C734        C735   1.408       .  A
C734        F740   1.358       .  S
C735        C736   1.404       .  A
C736        C737   1.403       .  A
C736        F739   1.357       .  S
C737        F741   1.357       .  S
C744        C745   1.398       .  A
C744        C749   1.394       .  A
C744        F762   1.359       .  S
C745        C746   1.406       .  A
C745        C750   1.486       .  S
C746        C747   1.410       .  A
C746        F751   1.357       .  S
C747        C748   1.415       .  A
C747        F763   1.355       .  S
C748        C749   1.420       .  A
C749        F752   1.357       .  S
C750        C753   1.404       .  A
C750        C757   1.406       .  A
C753        C754   1.397       .  A
C753        F758   1.358       .  S
C754        C755   1.406       .  A
C754        F760   1.357       .  S
C755        C756   1.410       .  A
C756        C757   1.407       .  A
C756        F759   1.358       .  S
C757        F761   1.357       .  S
C764        C765   1.403       .  A
C764        C769   1.399       .  A
C764        F782   1.357       .  S
C765        C766   1.403       .  A
C765        C770   1.472       .  S
C766        C767   1.398       .  A
C766        F771   1.358       .  S
C767        C768   1.405       .  A
C767        F783   1.358       .  S
C768        C769   1.405       .  A
C769        F772   1.358       .  S
C770        C773   1.403       .  A
C770        C777   1.402       .  A
C773        C774   1.400       .  A
C773        F778   1.358       .  S
C774        C775   1.407       .  A
C774        F780   1.357       .  S
C775        C776   1.407       .  A
C776        C777   1.396       .  A
C776        F779   1.357       .  S
C777        F781   1.358       .  S
C784        C785   1.404       .  A
C784        C789   1.397       .  A
C784        F802   1.358       .  S
C785        C786   1.403       .  A
C785        C790   1.470       .  S
C786        C787   1.397       .  A
C786        F791   1.358       .  S
C787        C788   1.403       .  A
C787        F803   1.357       .  S
C788        C789   1.404       .  A
C789        F792   1.357       .  S
C790        C793   1.402       .  A
C790        C797   1.399       .  A
C793        C794   1.399       .  A
C793        F798   1.358       .  S
C794        C795   1.408       .  A
C794        F800   1.356       .  S
C795        C796   1.410       .  A
C796        C797   1.395       .  A
C796        F799   1.357       .  S
C797        F801   1.358       .  S
C804        C805   1.400       .  A
C804        C809   1.397       .  A
C804        F822   1.358       .  S
C805        C806   1.406       .  A
C805        C810   1.491       .  S
C806        C807   1.409       .  A
C806        F811   1.358       .  S
C807        C808   1.418       .  A
C807        F823   1.351       .  S
C808        C809   1.419       .  A
C809        F812   1.358       .  S
C810        C813   1.409       .  A
C810        C817   1.408       .  A
C813        C814   1.404       .  A
C813        F818   1.358       .  S
C814        C815   1.404       .  A
C814        F820   1.358       .  S
C815        C816   1.404       .  A
C816        C817   1.403       .  A
C816        F819   1.357       .  S
C817        F821   1.358       .  S
C824        C825   1.404       .  A
C824        C829   1.405       .  A
C824        F842   1.358       .  S
C825        C826   1.403       .  A
C825        C830   1.489       .  S
C826        C827   1.405       .  A
C826        F831   1.358       .  S
C827        C828   1.414       .  A
C827        F843   1.358       .  S
C828        C829   1.414       .  A
C829        F832   1.358       .  S
C830        C833   1.400       .  A
C830        C837   1.402       .  A
C833        C834   1.404       .  A
C833        F838   1.358       .  S
C834        C835   1.420       .  A
C834        F840   1.358       .  S
C835        C836   1.420       .  A
C836        C837   1.407       .  A
C836        F839   1.354       .  S
C837        F841   1.358       .  S
C844        C845   1.408       .  A
C844        C849   1.406       .  A
C844        F862   1.358       .  S
C845        C846   1.404       .  A
C845        C850   1.493       .  S
C846        C847   1.401       .  A
C846        F851   1.357       .  S
C847        C848   1.411       .  A
C847        F863   1.357       .  S
C848        C849   1.412       .  A
C849        F852   1.357       .  S
C850        C853   1.406       .  A
C850        C857   1.409       .  A
C853        C854   1.402       .  A
C853        F858   1.358       .  S
C854        C855   1.408       .  A
C854        F860   1.358       .  S
C855        C856   1.407       .  A
C856        C857   1.407       .  A
C856        F859   1.358       .  S
C857        F861   1.358       .  S
C864        C865   1.407       .  A
C864        C869   1.407       .  A
C864        F882   1.357       .  S
C865        C866   1.406       .  A
C865        C870   1.497       .  S
C866        C867   1.399       .  A
C866        F871   1.358       .  S
C867        C868   1.411       .  A
C867        F883   1.353       .  S
C868        C869   1.415       .  A
C869        F872   1.358       .  S
C870        C873   1.407       .  A
C870        C877   1.405       .  A
C873        C874   1.406       .  A
C873        F878   1.358       .  S
C874        C875   1.413       .  A
C874        F880   1.354       .  S
C875        C876   1.416       .  A
C876        C877   1.402       .  A
C876        F879   1.356       .  S
C877        F881   1.358       .  S
C884        C885   1.399       .  A
C884        C889   1.398       .  A
C884        F902   1.359       .  S
C885        C886   1.409       .  A
C885        C890   1.495       .  S
C886        C887   1.415       .  A
C886        F891   1.357       .  S
C887        C888   1.416       .  A
C887        F903   1.354       .  S
C888        C889   1.420       .  A
C889        F892   1.358       .  S
C890        C893   1.408       .  A
C890        C897   1.408       .  A
C893        C894   1.408       .  A
C893        F898   1.357       .  S
C894        C895   1.407       .  A
C894        F900   1.355       .  S
C895        C896   1.406       .  A
C896        C897   1.404       .  A
C896        F899   1.358       .  S
C897        F901   1.357       .  S
