geometry optimzed in LAMMPS
_audit_creation_date              2020-12-01 
_audit_creation_method            'lammps2cif' 
_symmetry_space_group_name_H-M    'P1' 
_symmetry_Int_Tables_number       1 
_symmetry_cell_setting            triclinic 
loop_ 
_symmetry_equiv_pos_as_xyz 
  x,y,z 
_cell_length_a                    42.10688489 
_cell_length_b                    42.16545575036074 
_cell_length_c                    41.9596549267068 
_cell_angle_alpha                 90.14377929266901 
_cell_angle_beta                  90.13698329936783 
_cell_angle_gamma                 89.58326123795746 
loop_ 
_atom_site_label 
_atom_site_type_symbol 
_atom_site_fract_x 
_atom_site_fract_y 
_atom_site_fract_z 
_atom_site_charge 
C1          C  0.36648094  0.36701075  0.36263105     0.46400
H2          H  0.38068988  0.38181334  0.37850854    -0.02600
C3          C  0.33339911  0.33193375  0.32605072     0.46500
H4          H  0.31884342  0.31626893  0.31064361    -0.02600
C5          C  0.33092336  0.37257518  0.36796922    -0.16300
C6          C  0.37303658  0.37399264  0.32730927    -0.16100
C7          C  0.37347957  0.33176281  0.36835417    -0.16400
C8          C  0.31295365  0.35405535  0.34819607    -0.16400
C9          C  0.35522145  0.35517783  0.30717978    -0.16000
C10         C  0.35660597  0.31264925  0.34819593    -0.16300
C11         C  0.36722173  0.01811971  0.36460709     0.46400
H12         H  0.38093487  0.50250264  0.37974321    -0.02600
C13         C  0.33338945  0.05445031  0.32952568     0.46500
H14         H  0.31882554  0.07046747  0.31431831    -0.02600
C15         C  0.37458884  0.01309168  0.32926046    -0.16300
C16         C  0.33181949  0.01188406  0.36940800    -0.16100
C17         C  0.37282834  0.05323932  0.37188894    -0.16400
C18         C  0.35660310  0.03242386  0.31007139    -0.16400
C19         C  0.31334018  0.03247287  0.35207878    -0.16000
C20         C  0.35534397  0.07281759  0.35268313    -0.16300
C21         C  0.01834134  0.01387345  0.36636804     0.46400
H22         H  0.50379953  0.50149640  0.38139808    -0.02600
C23         C  0.04975977  0.05046018  0.33031553     0.46500
H24         H  0.06155255  0.06643710  0.31378024    -0.02600
C25         C  0.05440290  0.01041774  0.37287343    -0.16300
C26         C  0.01288997  0.00628919  0.33103295    -0.16100
C27         C  0.00905010  0.04857922  0.37164117    -0.16400
C28         C  0.07208166  0.03079150  0.35310901    -0.16400
C29         C  0.03025372  0.02527182  0.31141356    -0.16000
C30         C  0.02554948  0.06831675  0.35236016    -0.16300
C31         C  0.01762981  0.36277037  0.36732021     0.46400
H32         H  0.50295579  0.38167757  0.38196004    -0.02600
C33         C  0.05100334  0.32595297  0.33226088     0.46500
H34         H  0.06459185  0.31021226  0.31616618    -0.02600
C35         C  0.01095238  0.36845889  0.33178335    -0.16300
C36         C  0.05344282  0.36811919  0.37254305    -0.16100
C37         C  0.01099887  0.32788488  0.37445400    -0.16400
C38         C  0.02943417  0.34925385  0.31287806    -0.16400
C39         C  0.07170439  0.34769679  0.35392603    -0.16000
C40         C  0.02888515  0.30789219  0.35597583    -0.16300
C41         C  0.01534759  0.36350641  0.01719510     0.46400
H42         H  0.50057001  0.38127827  0.50096450    -0.02600
C43         C  0.04899495  0.32774178  0.05288079     0.46500
H44         H  0.06309507  0.31117219  0.06761777    -0.02600
C45         C  0.05097995  0.36752100  0.01063861    -0.16300
C46         C  0.01015249  0.37109629  0.05260917    -0.16100
C47         C  0.00720982  0.32852253  0.01236124    -0.16400
C48         C  0.06930719  0.34796913  0.02986343    -0.16400
C49         C  0.02887691  0.35253037  0.07208654    -0.16000
C50         C  0.02526008  0.30933821  0.03139382    -0.16300
C51         C  0.36300567  0.36492458  0.01330410     0.46400
H52         H  0.37812679  0.38086831  0.49810134    -0.02600
C53         C  0.32581641  0.33302384  0.04831304     0.46500
H54         H  0.30853179  0.32226329  0.06422110    -0.02600
C55         C  0.32791131  0.37267078  0.00666022    -0.16300
C56         C  0.36734046  0.32892686  0.00766843    -0.16100
C57         C  0.36946832  0.37128269  0.04855204    -0.16400
C58         C  0.30813672  0.35517181  0.02499462    -0.16400
C59         C  0.34675040  0.31083713  0.02633517    -0.16000
C60         C  0.34913614  0.35462075  0.06731578    -0.16300
C61         C  0.01540522  0.01441425  0.01555485     0.46400
H62         H  0.50086223  0.50240434  0.50055311    -0.02600
C63         C  0.04994312  0.04908792  0.05133303     0.46500
H64         H  0.06514711  0.06374145  0.06714646    -0.02600
C65         C  0.00735289  0.00921408  0.05060499    -0.16300
C66         C  0.05084063  0.00705913  0.01127289    -0.16100
C67         C  0.01052915  0.04987954  0.00855046    -0.16400
C68         C  0.02557043  0.02795467  0.06997822    -0.16400
C69         C  0.06956969  0.02565728  0.03012129    -0.16000
C70         C  0.02948062  0.06893310  0.02709050    -0.16300
C71         C  0.36360413  0.01604216  0.01411367     0.46400
H72         H  0.37784350  0.50239563  0.49803173    -0.02600
C73         C  0.33006335  0.05141341  0.05047368     0.46500
H74         H  0.31668599  0.06651178  0.06720141    -0.02600
C75         C  0.32787255  0.01115685  0.00800528    -0.16300
C76         C  0.36958449  0.00869964  0.04921011    -0.16100
C77         C  0.37088790  0.05125083  0.00934631    -0.16400
C78         C  0.30940804  0.03015741  0.02807531    -0.16400
C79         C  0.35192748  0.02775739  0.06872460    -0.16000
C80         C  0.35237569  0.07036518  0.02803073    -0.16300
O81         O  0.40443955  0.46863564  0.03261517    -0.72000
O82         O  0.47519885  0.41156988  0.03496827    -0.73000
O83         O  0.41082396  0.40449825  0.03287166    -0.61600
O84         O  0.46842536  0.47525386  0.03393123    -0.70000
O85         O  0.47501478  0.47501944  0.08585886    -0.69600
O86         O  0.40232664  0.40566748  0.08455527    -0.60800
O87         O  0.47331727  0.40402090  0.08671470    -0.73300
O88         O  0.40446128  0.47613283  0.08458492    -0.72100
Cu89       Cu  0.43975556  0.43990234  0.03258133     1.04600
Cu90       Cu  0.43874401  0.44016542  0.08807513     1.04300
C91         C  0.39375150  0.48319298  0.05676379     0.94200
C92         C  0.48553209  0.39740882  0.05946408     0.93300
C93         C  0.39546801  0.39456051  0.05673858     0.85500
C94         C  0.48248646  0.48610542  0.05828493     0.91800
O95         O  0.40737178  0.47866667  0.29397124    -0.72000
O96         O  0.47741875  0.40622118  0.29551936    -0.73000
O97         O  0.40600248  0.40966234  0.29392953    -0.61600
O98         O  0.47780590  0.47708268  0.29557411    -0.70000
O99         O  0.47442179  0.47343730  0.34770535    -0.69600
O100        O  0.40948755  0.41092664  0.34603699    -0.60800
O101        O  0.47368799  0.40959852  0.34763331    -0.73300
O102        O  0.41032473  0.47494905  0.34609089    -0.72100
Cu103      Cu  0.44225393  0.44286826  0.29218196     1.04600
Cu104      Cu  0.44187847  0.44227107  0.34789530     1.04300
C105        C  0.39819219  0.48782058  0.32168601     0.94200
C106        C  0.48648819  0.39702025  0.32342551     0.93300
C107        C  0.39696540  0.39948652  0.32116450     0.85500
C108        C  0.48726669  0.48550621  0.32343291     0.91800
O109        O  0.08648565  0.40293575  0.47896475    -0.72000
O110        O  0.08890643  0.47362760  0.40759329    -0.73000
O111        O  0.08677674  0.47302762  0.47830752    -0.61600
O112        O  0.08869409  0.40126940  0.40810707    -0.70000
O113        O  0.03729402  0.40941417  0.40589035    -0.69600
O114        O  0.03499599  0.46702856  0.47600036    -0.60800
O115        O  0.03743144  0.47362621  0.41189514    -0.73300
O116        O  0.03507276  0.40285606  0.47019039    -0.72100
Cu117      Cu  0.09033478  0.43770727  0.44322816     1.04600
Cu118      Cu  0.03524590  0.43826284  0.44096856     1.04300
C119        C  0.05882385  0.39177917  0.48520108     0.94200
C120        C  0.06183395  0.48489077  0.39855571     0.93300
C121        C  0.05880793  0.48080446  0.48787934     0.85500
C122        C  0.06138824  0.39414079  0.39628008     0.91800
O123        O  0.40593383  0.03644655  0.41250558    -0.72000
O124        O  0.47606402  0.03687963  0.46906693    -0.73000
O125        O  0.41219019  0.03678168  0.47626762    -0.61600
O126        O  0.46941412  0.03533450  0.40567925    -0.70000
O127        O  0.47677898  0.08692383  0.40715839    -0.69600
O128        O  0.40310707  0.08818750  0.47482954    -0.60800
O129        O  0.47364601  0.08809976  0.47832027    -0.73300
O130        O  0.40699962  0.08804802  0.40456881    -0.72100
Cu131      Cu  0.44087074  0.03533880  0.44099841     1.04600
Cu132      Cu  0.44018053  0.09052281  0.44127909     1.04300
C133        C  0.39610205  0.06056389  0.39750907     0.94200
C134        C  0.48606632  0.06082571  0.48406037     0.93300
C135        C  0.39634950  0.06057945  0.48575613     0.85500
C136        C  0.48391989  0.05942718  0.39564325     0.91800
O137        O  0.29219409  0.47821368  0.47207219    -0.72000
O138        O  0.29400896  0.40676487  0.40044441    -0.73000
O139        O  0.29252509  0.40696790  0.47160533    -0.61600
O140        O  0.29428971  0.47761321  0.40089389    -0.70000
O141        O  0.34609763  0.47259172  0.40493594    -0.69600
O142        O  0.34452631  0.41160541  0.47086134    -0.60800
O143        O  0.34572240  0.40879414  0.40701076    -0.73300
O144        O  0.34402708  0.47532981  0.46918033    -0.72100
Cu145      Cu  0.29058351  0.44238983  0.43619115     1.04600
Cu146      Cu  0.34598766  0.44206667  0.43799400     1.04300
C147        C  0.31960997  0.48763264  0.48184444     0.94200
C148        C  0.32203111  0.39691205  0.39290635     0.93300
C149        C  0.32012971  0.39849154  0.48191547     0.85500
C150        C  0.32233864  0.48609643  0.39243619     0.91800
O151        O  0.47533741  0.29625579  0.47592631    -0.72000
O152        O  0.40355822  0.29651899  0.40583927    -0.73000
O153        O  0.47377550  0.29736729  0.40480368    -0.61600
O154        O  0.40511460  0.29504623  0.47712100    -0.70000
O155        O  0.40262800  0.34609167  0.46816695    -0.69600
O156        O  0.47546857  0.34879996  0.41354898    -0.60800
O157        O  0.41187296  0.34790079  0.40465026    -0.73300
O158        O  0.46652040  0.34770498  0.47766784    -0.72100
Cu159      Cu  0.43950575  0.29361429  0.44086440     1.04600
Cu160      Cu  0.43905205  0.34864998  0.44110207     1.04300
C161        C  0.48170189  0.32370771  0.48768120     0.94200
C162        C  0.39738535  0.32399727  0.39391509     0.93300
C163        C  0.48570503  0.32467916  0.39865178     0.85500
C164        C  0.39246873  0.32221054  0.48313665     0.91800
C165        C  0.15782846  0.02852155  0.50669474    -0.13400
C166        C  0.17186391  0.02063852  0.03406437     0.17000
C167        C  0.15318676  0.00553835  0.05736742     0.03300
C168        C  0.11994231  0.00627524  0.05478403    -0.11900
C169        C  0.10478519  0.02360579  0.03064151    -0.03000
C170        C  0.12481910  0.03148813  0.50467837     0.02500
C171        C  0.20701520  0.02226602  0.03556233     0.09400
N172        N  0.16718691  0.99169479  0.08509761     0.65700
H173        H  0.10601221  0.99375202  0.07216173     0.18600
N174        N  0.11189341  0.04833171  0.47824903     0.76200
H175        H  0.17236112  0.03815465  0.48778636     0.10100
C176        C  0.22683852  0.49449903  0.02988875     0.03800
C177        C  0.25977177  0.49795463  0.02962219    -0.04900
C178        C  0.27398058  0.02886688  0.03103084    -0.23300
C179        C  0.25403555  0.05578967  0.03677808     0.13100
C180        C  0.22106933  0.05201021  0.03875127    -0.12400
N181        N  0.21401692  0.46500181  0.52176787     0.64800
H182        H  0.27411984  0.47802890  0.52692483     0.12600
N183        N  0.26577480  0.08731702  0.04049528     0.61400
H184        H  0.20614422  0.07276234  0.04244437     0.08800
O185        O  0.11772780  0.07755710  0.47658089    -0.40100
O186        O  0.10654460  0.03332172  0.45276213    -0.39200
O187        O  0.16974704  0.00849851  0.10989087    -0.39200
O188        O  0.16719365  0.96193462  0.08788721    -0.37000
O189        O  0.25819669  0.10734232  0.01949177    -0.37900
O190        O  0.27013000  0.09744215  0.06848641    -0.34000
O191        O  0.20792293  0.45799405  0.49315596    -0.35400
O192        O  0.21991390  0.44302807  0.54113067    -0.39700
C193        C  0.32813133  0.15647545  0.50606912    -0.13400
C194        C  0.35038954  0.17232931  0.02548355     0.17000
C195        C  0.37139610  0.15609394  0.04582044     0.03300
C196        C  0.37179612  0.12282980  0.04608964    -0.11900
C197        C  0.35179254  0.10542379  0.02578081    -0.03000
C198        C  0.32880461  0.12312238  0.50482958     0.02500
C199        C  0.34849872  0.20739965  0.02518689     0.09400
N200        N  0.39312860  0.17330027  0.06539971     0.65700
H201        H  0.38799180  0.11051750  0.06198057     0.18600
N202        N  0.30789199  0.10746055  0.48247209     0.76200
H203        H  0.31109291  0.16958168  0.49179310     0.10100
C204        C  0.35421879  0.22617634  0.49740520     0.03800
C205        C  0.35141259  0.25939936  0.49780422    -0.04900
C206        C  0.34346968  0.27479270  0.02519227    -0.23300
C207        C  0.33094393  0.25634696  0.05075924     0.13100
C208        C  0.33439352  0.22326729  0.05072220    -0.12400
N209        N  0.36386936  0.21032914  0.46882317     0.64800
H210        H  0.35426044  0.27187475  0.47558545     0.12600
N211        N  0.31061009  0.26946748  0.07456556     0.61400
H212        H  0.32480542  0.20969898  0.07035058     0.08800
O213        O  0.29111133  0.12366755  0.46346800    -0.40100
O214        O  0.30573784  0.07771357  0.48122130    -0.39200
O215        O  0.38460159  0.18228368  0.09279649    -0.39200
O216        O  0.41737630  0.18544570  0.05286501    -0.37000
O217        O  0.28112071  0.27127597  0.06917459    -0.37900
O218        O  0.32087129  0.27412902  0.10243748    -0.34000
O219        O  0.34366800  0.20511443  0.44722836    -0.35400
O220        O  0.39048828  0.19640641  0.46780347    -0.39700
C221        C  0.03177081  0.15676770  0.00167793    -0.13400
C222        C  0.03010614  0.17200585  0.03131900     0.17000
C223        C  0.02817953  0.15314548  0.05902135     0.03300
C224        C  0.02818942  0.11998328  0.05647129    -0.11900
C225        C  0.02970625  0.10453191  0.02681435    -0.03000
C226        C  0.03207764  0.12359305  0.99892663     0.02500
C227        C  0.02941872  0.20742953  0.03219582     0.09400
N228        N  0.52768090  0.16897346  0.08970085     0.65700
H229        H  0.52709732  0.10800524  0.07810137     0.18600
N230        N  0.03810104  0.10922678  0.46785133     0.76200
H231        H  0.03518333  0.16969556  0.48004944     0.10100
C232        C  0.05332630  0.22563545  0.01727607     0.03800
C233        C  0.05098399  0.25872263  0.01684816    -0.04900
C234        C  0.02502337  0.27436737  0.03045988    -0.23300
C235        C  0.50103432  0.25815802  0.04457140     0.13100
C236        C  0.50337021  0.22487737  0.04516062    -0.12400
N237        N  0.08059630  0.21115274  0.00298850     0.64800
H238        H  0.06974520  0.27237267  0.00589078     0.12600
N239        N  0.47467787  0.27367231  0.05951598     0.61400
H240        H  0.48440777  0.21137308  0.05585838     0.08800
O241        O  0.01731189  0.11536156  0.44705753    -0.40100
O242        O  0.06598643  0.10418888  0.45829493    -0.39200
O243        O  0.50140697  0.17078176  0.10401765    -0.39200
O244        O  0.55299453  0.17025097  0.10579827    -0.37000
O245        O  0.47762448  0.28445181  0.08742436    -0.37900
O246        O  0.45062628  0.28128949  0.04318333    -0.34000
O247        O  0.08153230  0.20855110  0.97303077    -0.35400
O248        O  0.10636529  0.21081470  0.01839638    -0.39700
C249        C  0.22447398  0.33564704  0.50011335    -0.13400
C250        C  0.20646310  0.35008864  0.02379209     0.17000
C251        C  0.22240284  0.36822027  0.04761495     0.03300
C252        C  0.25571518  0.36996456  0.04694378    -0.11900
C253        C  0.27323273  0.35533643  0.02272790    -0.03000
C254        C  0.25746543  0.33816261  0.49940018     0.02500
C255        C  0.17146448  0.34525749  0.02416335     0.09400
N256        N  0.20549840  0.38508584  0.07238045     0.65700
H257        H  0.26817500  0.38311011  0.06527171     0.18600
N258        N  0.27478044  0.32120271  0.47550558     0.76200
H259        H  0.21303470  0.32029450  0.48292626     0.10100
C260        C  0.15246680  0.34967057  0.49594897     0.03800
C261        C  0.11958342  0.34672677  0.49824672    -0.04900
C262        C  0.10452779  0.34481515  0.02862716    -0.23500
C263        C  0.12364809  0.33976530  0.05611327     0.13100
C264        C  0.15662785  0.33800157  0.05307197    -0.12400
N265        N  0.16558079  0.35786243  0.46574017     0.64800
H266        H  0.10560943  0.34727103  0.47656561     0.12600
N267        N  0.11084760  0.33901180  0.08763865     0.61400
H268        H  0.17083908  0.33376093  0.07423133     0.08800
O269        O  0.27760351  0.33333271  0.44821054    -0.40100
O270        O  0.27938782  0.29179414  0.47884444    -0.39200
O271        O  0.21906128  0.39102855  0.09858725    -0.39200
O272        O  0.17903408  0.39817401  0.06661430    -0.37000
O273        O  0.11071212  0.31295605  0.10239512    -0.37900
O274        O  0.11034901  0.36438820  0.10362431    -0.34000
O275        O  0.16580388  0.33732283  0.44384012    -0.35400
O276        O  0.16723209  0.38678476  0.45832646    -0.39700
C277        C  0.00812908  0.33785430  0.22530647    -0.13400
C278        C  0.03385694  0.35221920  0.21021814     0.17000
C279        C  0.05853223  0.36488364  0.22885473     0.03300
C280        C  0.05607654  0.36470600  0.26228501    -0.11900
C281        C  0.02998810  0.35050942  0.27747131    -0.03000
C282        C  0.00666916  0.33525573  0.25862305     0.02500
C283        C  0.03468138  0.35278625  0.17487713     0.09400
N284        N  0.08707952  0.37562761  0.21408435     0.65700
H285        H  0.07509560  0.37467241  0.27650384     0.18600
N286        N  0.98312962  0.31480705  0.27230614     0.76200
H287        H  0.98948749  0.32756263  0.21084365     0.10100
C288        C  0.03472955  0.32443181  0.15716992     0.03800
C289        C  0.03194543  0.32537213  0.12408087    -0.04900
C290        C  0.03070482  0.35421484  0.10754830    -0.23300
C291        C  0.03374626  0.38285578  0.12516703     0.13100
C292        C  0.03438879  0.38182492  0.15864753    -0.12400
N293        N  0.03928650  0.29444251  0.17229854     0.64800
H294        H  0.03126183  0.30308553  0.11126336     0.12600
N295        N  0.54019415  0.41447252  0.10950719     0.61400
H296        H  0.53670442  0.40577966  0.17161043     0.08800
O297        O  0.97143393  0.29264161  0.25584699    -0.40100
O298        O  0.97594581  0.31664467  0.30138710    -0.39200
O299        O  0.09062657  0.40475622  0.20843414    -0.39200
O300        O  0.10571672  0.35568471  0.20144800    -0.37000
O301        O  0.56798124  0.42054196  0.10026685    -0.37900
O302        O  0.52160995  0.43739784  0.11510511    -0.34000
O303        O  0.01563474  0.27685193  0.17685403    -0.35400
O304        O  0.06681206  0.28240828  0.17293830    -0.39700
C305        C  0.49904479  0.04170458  0.15589262    -0.13400
C306        C  0.02585788  0.02661254  0.17253535     0.17000
C307        C  0.05161049  0.01441277  0.15460050     0.03300
C308        C  0.05040224  0.01468624  0.12139991    -0.11900
C309        C  0.02425331  0.02703075  0.10513863    -0.03000
C310        C  0.49809028  0.04123954  0.12235122     0.02500
C311        C  0.02648864  0.02630657  0.20811600     0.09400
N312        N  0.08003821  0.00310103  0.16947608     0.65700
H313        H  0.07037074  0.00544460  0.10824693     0.18600
N314        N  0.47118233  0.05431034  0.10598993     0.76200
H315        H  0.47865869  0.05055807  0.16896781     0.10100
C316        C  0.02279513  0.05427395  0.22634612     0.03800
C317        C  0.02433386  0.05299061  0.25963726    -0.04900
C318        C  0.02937729  0.02434503  0.27578277    -0.23300
C319        C  0.03297699  0.49604299  0.25676010     0.13100
C320        C  0.03074983  0.49769258  0.22340535    -0.12400
N321        N  0.01892075  0.08453161  0.21159019     0.64800
H322        H  0.02198037  0.07488302  0.27293276     0.12600
N323        N  0.04344234  0.46682071  0.27071321     0.61400
H324        H  0.03443482  0.47628190  0.20951411     0.08800
O325        O  0.44738662  0.03724233  0.10011077    -0.40100
O326        O  0.47269423  0.08172719  0.09415679    -0.39200
O327        O  0.08538917  0.97361643  0.16998241    -0.39200
O328        O  0.10314712  0.02181619  0.17211176    -0.37000
O329        O  0.07272537  0.46307405  0.27607387    -0.37900
O330        O  0.02646831  0.44247863  0.26744333    -0.34000
O331        O  0.49113834  0.10118707  0.21122301    -0.35400
O332        O  0.04296958  0.10190757  0.20837869    -0.39700
C333        C  0.49438790  0.15656803  0.34443864    -0.13400
C334        C  0.02068277  0.17037754  0.35474004     0.17000
C335        C  0.04746519  0.15349967  0.36633070     0.03300
C336        C  0.04731571  0.12037252  0.36712424    -0.11900
C337        C  0.02243137  0.10330043  0.35380879    -0.03000
C338        C  0.49552924  0.12325277  0.34292884     0.02500
C339        C  0.02009929  0.20581658  0.35541535     0.09400
N340        N  0.07593691  0.16956718  0.37525584     0.65700
H341        H  0.06717312  0.10768496  0.37754105     0.18600
N342        N  0.46978372  0.10640066  0.32879990     0.76200
H343        H  0.47334203  0.16891959  0.33605129     0.10100
C344        C  0.01418542  0.22410293  0.32784895     0.03800
C345        C  0.01793627  0.25703613  0.32879411    -0.04900
C346        C  0.02647482  0.27274041  0.35691501    -0.23300
C347        C  0.03197131  0.25463529  0.38482170     0.13100
C348        C  0.02823484  0.22161270  0.38382546    -0.12400
N349        N  0.50558840  0.21255062  0.29917942     0.64800
H350        H  0.51397894  0.27334851  0.30746705     0.12600
N351        N  0.04339134  0.26874248  0.41373626     0.61400
H352        H  0.03276698  0.20804195  0.40528621     0.08800
O353        O  0.44605167  0.09883635  0.34533753    -0.40100
O354        O  0.47287222  0.09514353  0.30114881    -0.39200
O355        O  0.08796054  0.16484418  0.40242442    -0.39200
O356        O  0.09236940  0.18266738  0.35396113    -0.37000
O357        O  0.02514293  0.27028199  0.43745657    -0.37900
O358        O  0.07289037  0.26907927  0.41882676    -0.34000
O359        O  0.47712183  0.21434891  0.28982381    -0.35400
O360        O  0.52708827  0.20665222  0.27909200    -0.39700
C361        C  0.38319100  0.03916507  0.22297241    -0.13400
C362        C  0.35469306  0.03272459  0.20676272     0.17000
C363        C  0.32867772  0.52840037  0.22432142     0.03300
C364        C  0.32978977  0.52784992  0.25754454    -0.11900
C365        C  0.35752665  0.03208578  0.27454794    -0.03000
C366        C  0.38467748  0.03984064  0.25641983     0.02500
C367        C  0.35436098  0.03168359  0.17105046     0.09400
N368        N  0.29841380  0.52536291  0.20919592     0.65700
H369        H  0.30834612  0.52304919  0.27004459     0.18600
N370        N  0.41332940  0.05051422  0.27105847     0.76200
H371        H  0.40463352  0.04380699  0.20967470     0.10100
C372        C  0.36844486  0.05569533  0.15220362     0.03800
C373        C  0.36814000  0.05324865  0.11897240    -0.04900
C374        C  0.35393708  0.02756989  0.10374852    -0.23300
C375        C  0.34115059  0.50334878  0.12233289     0.13100
C376        C  0.34258863  0.50524726  0.15566549    -0.12400
N377        N  0.38180679  0.08360557  0.16597935     0.64800
H378        H  0.37855476  0.07197577  0.10488853     0.12600
N379        N  0.32397598  0.47816143  0.10750535     0.61400
H380        H  0.33213504  0.48649675  0.16958407     0.08800
O381        O  0.41818172  0.07995815  0.27181883    -0.40100
O382        O  0.43705876  0.03208792  0.27161910    -0.39200
O383        O  0.28497427  0.49870987  0.20935699    -0.39200
O384        O  0.28167019  0.54998408  0.20521884    -0.37000
O385        O  0.29552449  0.48272521  0.09909519    -0.37900
O386        O  0.33863149  0.45386507  0.09766233    -0.34000
O387        O  0.41163163  0.08643183  0.16625708    -0.35400
O388        O  0.36483134  0.10835005  0.16737013    -0.39700
C389        C  0.22712102  0.03842183  0.38205724    -0.13400
C390        C  0.21104317  0.03698290  0.35285437     0.17000
C391        C  0.22860293  0.03611805  0.32447205     0.03300
C392        C  0.26156316  0.03611404  0.32567526    -0.11900
C393        C  0.27813290  0.03527602  0.35455660    -0.03000
C394        C  0.26052857  0.03712495  0.38366457     0.02500
C395        C  0.17597920  0.03520738  0.35238357     0.09400
N396        N  0.21352659  0.03322765  0.29410269     0.65700
H397        H  0.27416800  0.03564344  0.30345878     0.18600
N398        N  0.27517503  0.03754460  0.41481643     0.76200
H399        H  0.21332909  0.03981889  0.40379857     0.10100
C400        C  0.15945531  0.51015756  0.36542565     0.03800
C401        C  0.12663727  0.50768845  0.36112880    -0.04900
C402        C  0.10814557  0.03350299  0.35138890    -0.23300
C403        C  0.12526831  0.06075915  0.34024712     0.13100
C404        C  0.15859418  0.06043761  0.33984374    -0.12400
N405        N  0.17579952  0.48631867  0.38357495     0.64800
H406        H  0.11647244  0.48472094  0.36409291     0.12600
N407        N  0.11068084  0.08943932  0.32928538     0.61400
H408        H  0.17110061  0.08091662  0.33077647     0.08800
O409        O  0.25972185  0.02857998  0.43890605    -0.40100
O410        O  0.30303099  0.04750330  0.41884966    -0.39200
O411        O  0.21219252  0.05720417  0.27620879    -0.39200
O412        O  0.21118538  0.00599742  0.28180625    -0.37000
O413        O  0.11478551  0.11402212  0.34594236    -0.37900
O414        O  0.10766516  0.09304772  0.29955278    -0.34000
O415        O  0.16403381  0.47691440  0.40950953    -0.35400
O416        O  0.20237298  0.47548324  0.37469248    -0.39700
C417        C  0.37497792  0.36269706  0.21798588    -0.13400
C418        C  0.34511064  0.35813405  0.20440625     0.17000
C419        C  0.31877238  0.35358928  0.22453771     0.03300
C420        C  0.32303521  0.35434504  0.25759764    -0.11900
C421        C  0.35328702  0.35742538  0.27150478    -0.03000
C422        C  0.37985012  0.36047315  0.25082952     0.02500
C423        C  0.34358102  0.35638058  0.16918200     0.09400
N424        N  0.28830353  0.34499288  0.21232042     0.65700
H425        H  0.30240178  0.35086544  0.27244406     0.18600
N426        N  0.41198105  0.35774970  0.26168892     0.76200
H427        H  0.39528243  0.36554365  0.20243959     0.10100
C428        C  0.32657388  0.37898462  0.15114565     0.03800
C429        C  0.32809239  0.37796042  0.11772304    -0.04900
C430        C  0.34850194  0.35638610  0.10232954    -0.23300
C431        C  0.36726725  0.33551027  0.12039843     0.13100
C432        C  0.36385509  0.33480013  0.15346530    -0.12400
N433        N  0.31046086  0.40476929  0.16650852     0.64800
H434        H  0.31436661  0.39477983  0.10379772     0.12600
N435        N  0.39174568  0.31697767  0.10564904     0.61400
H436        H  0.37838238  0.31842917  0.16715870     0.08800
O437        O  0.43436071  0.37028202  0.24628445    -0.40100
O438        O  0.41845276  0.34083353  0.28540602    -0.39200
O439        O  0.28298508  0.31602624  0.20707898    -0.39200
O440        O  0.26498830  0.36330135  0.21732044    -0.37000
O441        O  0.41870475  0.32907310  0.10127598    -0.37900
O442        O  0.38523673  0.29080502  0.09268922    -0.34000
O443        O  0.32614530  0.42520806  0.18179144    -0.35400
O444        O  0.28053392  0.40615392  0.16645899    -0.39700
C445        C  0.15867363  0.32092283  0.34626822    -0.13400
C446        C  0.17472047  0.34968919  0.34997954     0.17000
C447        C  0.15610160  0.37771441  0.35269046     0.03300
C448        C  0.12298104  0.37631372  0.35208185    -0.11900
C449        C  0.10712316  0.34735814  0.35198148    -0.03000
C450        C  0.12553046  0.31918400  0.34841017     0.02500
C451        C  0.21042395  0.35017245  0.34952943     0.09400
N452        N  0.17003725  0.40776586  0.35874481     0.65700
H453        H  0.10962217  0.39834127  0.35248377     0.18600
N454        N  0.11183329  0.28827585  0.34853819     0.76200
H455        H  0.17178370  0.29926905  0.34181163     0.10100
C456        C  0.22956468  0.32715618  0.36543873     0.03800
C457        C  0.26271858  0.32934174  0.36463221    -0.04900
C458        C  0.27778114  0.35375934  0.34832421    -0.23300
C459        C  0.25911871  0.37635146  0.33187736     0.13100
C460        C  0.22593747  0.37394202  0.33211717    -0.12400
N461        N  0.21624765  0.30129697  0.38269077     0.64800
H462        H  0.27685703  0.31191960  0.37735516     0.12600
N463        N  0.27314227  0.40220866  0.31517944     0.61400
H464        H  0.21230569  0.39082212  0.31823547     0.08800
O465        O  0.10878622  0.27391015  0.32229783    -0.40100
O466        O  0.11522258  0.27182345  0.37336197    -0.39200
O467        O  0.16727745  0.42926920  0.33801597    -0.39200
O468        O  0.17518528  0.41540756  0.38734876    -0.37000
O469        O  0.27269634  0.40199207  0.28511489    -0.37900
O470        O  0.27571234  0.42847642  0.32938881    -0.34000
O471        O  0.21761638  0.27392177  0.37048311    -0.35400
O472        O  0.21362572  0.30371010  0.41252312    -0.39700
C473        C  0.34580760  0.15984422  0.37357457    -0.13400
C474        C  0.35883419  0.17451997  0.34665782     0.17000
C475        C  0.37223401  0.15510934  0.32249697     0.03300
C476        C  0.37152002  0.12205953  0.32548586    -0.11900
C477        C  0.35802580  0.10772096  0.35207160    -0.03000
C478        C  0.34486143  0.12682202  0.37608039     0.02500
C479        C  0.35834651  0.20983564  0.34488011     0.09400
N480        N  0.38474963  0.16813744  0.29381898     0.65700
H481        H  0.38056520  0.10745217  0.30638826     0.18600
N482        N  0.32749490  0.11298443  0.40140000     0.76200
H483        H  0.33573758  0.17405780  0.39255704     0.10100
C484        C  0.32998123  0.22748146  0.34875150     0.03800
C485        C  0.33065322  0.26057706  0.34908047    -0.04900
C486        C  0.35914483  0.27724026  0.34692770    -0.23300
C487        C  0.38810494  0.25962742  0.34358199     0.13100
C488        C  0.38701328  0.22622848  0.34217342    -0.12400
N489        N  0.30000768  0.21232362  0.35240127     0.64800
H490        H  0.30845754  0.27338654  0.35174445     0.12600
N491        N  0.41872581  0.27447745  0.34195865     0.61400
H492        H  0.40890316  0.21276434  0.33979298     0.08800
O493        O  0.29804611  0.10875203  0.39801791    -0.40100
O494        O  0.34214144  0.10016284  0.42427822    -0.39200
O495        O  0.41440397  0.16729348  0.28954383    -0.39200
O496        O  0.36674331  0.17008025  0.26981113    -0.37000
O497        O  0.42159599  0.30216845  0.33143555    -0.37900
O498        O  0.44339997  0.25960402  0.35061106    -0.34000
O499        O  0.28773873  0.21125198  0.37979160    -0.35400
O500        O  0.28226337  0.20953394  0.32831196    -0.39700
C501        C  0.36711203  0.36582402  0.86277528     0.46400
H502        H  0.38139175  0.38054223  0.87867961    -0.02600
C503        C  0.33413676  0.33080470  0.82603283     0.46500
H504        H  0.31964531  0.31518199  0.81053224    -0.02600
C505        C  0.33154768  0.37107189  0.86834622    -0.16300
C506        C  0.37332355  0.37326313  0.82749794    -0.16100
C507        C  0.37437735  0.33056207  0.86819309    -0.16400
C508        C  0.31359597  0.35252896  0.84849395    -0.16400
C509        C  0.35580990  0.35431109  0.80724586    -0.16000
C510        C  0.35742749  0.31148442  0.84803153    -0.16300
C511        C  0.36693401  0.01709654  0.86463799     0.46400
H512        H  0.38167886  0.50148745  0.87914919    -0.02600
C513        C  0.33289558  0.05339641  0.82967969     0.46500
H514        H  0.31803693  0.06928903  0.81463548    -0.02600
C515        C  0.37441086  0.01242423  0.82920715    -0.16300
C516        C  0.33163790  0.01062819  0.86939024    -0.16100
C517        C  0.37237416  0.05216085  0.87217123    -0.16400
C518        C  0.35649404  0.03186929  0.80999498    -0.16400
C519        C  0.31307099  0.03097753  0.85208846    -0.16000
C520        C  0.35478014  0.07177462  0.85304213    -0.16300
C521        C  0.01809393  0.01432484  0.86643182     0.46400
H522        H  0.50388300  0.50024774  0.88143432    -0.02600
C523        C  0.05008128  0.05046767  0.83042486     0.46500
H524        H  0.06221053  0.06622859  0.81389277    -0.02600
C525        C  0.05411897  0.01048572  0.87299790    -0.16300
C526        C  0.01238494  0.00696351  0.83107755    -0.16100
C527        C  0.00922100  0.04913299  0.87166463    -0.16400
C528        C  0.07207305  0.03052856  0.85326280    -0.16400
C529        C  0.03014999  0.02565001  0.81150378    -0.16000
C530        C  0.02607060  0.06862761  0.85241722    -0.16300
C531        C  0.01806804  0.36328912  0.86713424     0.46400
H532        H  0.50305970  0.38003022  0.88190773    -0.02600
C533        C  0.05119660  0.32609734  0.83228137     0.46500
H534        H  0.06483229  0.31018909  0.81634144    -0.02600
C535        C  0.01158237  0.36921501  0.83161221    -0.16300
C536        C  0.05395296  0.36814227  0.87266290    -0.16100
C537        C  0.01100177  0.32848819  0.87424105    -0.16400
C538        C  0.02994008  0.34972704  0.81275131    -0.16400
C539        C  0.07205758  0.34746070  0.85419149    -0.16000
C540        C  0.02873695  0.30826226  0.85587488    -0.16300
C541        C  0.01521279  0.36282794  0.51690129     0.46400
H542        H  0.50080958  0.38005141  0.00128236    -0.02600
C543        C  0.04943383  0.32736917  0.55239240     0.46500
H544        H  0.06375379  0.31098397  0.56713252    -0.02600
C545        C  0.05073709  0.36713932  0.51008343    -0.16300
C546        C  0.01020940  0.37042505  0.55236500    -0.16100
C547        C  0.00739442  0.32769146  0.51218330    -0.16400
C548        C  0.06937435  0.34782426  0.52924109    -0.16400
C549        C  0.02919347  0.35197924  0.57169704    -0.16000
C550        C  0.02582549  0.30863642  0.53104491    -0.16300
C551        C  0.36269201  0.36630719  0.51290857     0.46400
H552        H  0.37855792  0.37951421  0.99863724    -0.02600
C553        C  0.32585045  0.33445412  0.54840593     0.46500
H554        H  0.30859771  0.32329018  0.56419352    -0.02600
C555        C  0.32755402  0.37376525  0.50629674    -0.16300
C556        C  0.36727574  0.33025907  0.50769025    -0.16100
C557        C  0.36918513  0.37311205  0.54802320    -0.16400
C558        C  0.30797898  0.35630297  0.52489053    -0.16400
C559        C  0.34701442  0.31227552  0.52671283    -0.16000
C560        C  0.34911142  0.35646780  0.56707974    -0.16300
C561        C  0.01592860  0.01344038  0.51543803     0.46400
H562        H  0.50059863  0.50030868  0.00044818    -0.02600
C563        C  0.05145889  0.04744875  0.55088410     0.46500
H564        H  0.06713526  0.06179477  0.56651166    -0.02600
C565        C  0.00824079  0.00824708  0.55062452    -0.16300
C566        C  0.05110307  0.00556942  0.51065963    -0.16100
C567        C  0.01141762  0.04904737  0.50864428    -0.16400
C568        C  0.02694942  0.02672902  0.56987159    -0.16400
C569        C  0.07039445  0.02370985  0.52923787    -0.16000
C570        C  0.03091916  0.06777592  0.52704346    -0.16300
C571        C  0.36361458  0.01708633  0.51342863     0.46400
H572        H  0.37843196  0.50075788  0.99892075    -0.02600
C573        C  0.32958104  0.05185669  0.54993205     0.46500
H574        H  0.31608108  0.06680308  0.56671113    -0.02600
C575        C  0.32797456  0.01138185  0.50760835    -0.16300
C576        C  0.36995331  0.00997242  0.54850801    -0.16100
C577        C  0.37017489  0.05242778  0.50846400    -0.16400
C578        C  0.30918949  0.02968241  0.52806495    -0.16400
C579        C  0.35222671  0.02885511  0.56811277    -0.16000
C580        C  0.35122730  0.07126699  0.52704107    -0.16300
O581        O  0.40484364  0.47110114  0.53185393    -0.72000
O582        O  0.47462836  0.41274008  0.53440042    -0.73000
O583        O  0.41008928  0.40683124  0.53200453    -0.61600
O584        O  0.46898277  0.47663778  0.53360770    -0.70000
O585        O  0.47465376  0.47682239  0.58563846    -0.69600
O586        O  0.40206846  0.40751280  0.58379477    -0.60800
O587        O  0.47287797  0.40568732  0.58621041    -0.73300
O588        O  0.40393750  0.47784327  0.58392517    -0.72100
Cu589      Cu  0.43968407  0.44176029  0.53193207     1.04600
Cu590      Cu  0.43835544  0.44194055  0.58749592     1.04300
C591        C  0.39361964  0.48520579  0.55603046     0.94200
C592        C  0.48493513  0.39868700  0.55898261     0.93300
C593        C  0.39501336  0.39662623  0.55595552     0.85500
C594        C  0.48260451  0.48771299  0.55812456     0.91800
O595        O  0.40753749  0.47721400  0.79358080    -0.72000
O596        O  0.47810314  0.40533509  0.79567829    -0.73000
O597        O  0.40674861  0.40848012  0.79420591    -0.61600
O598        O  0.47796744  0.47633537  0.79554912    -0.70000
O599        O  0.47656595  0.47045356  0.84755289    -0.69600
O600        O  0.40810214  0.41179114  0.84629948    -0.60800
O601        O  0.47227773  0.40662893  0.84769023    -0.73300
O602        O  0.41258870  0.47571273  0.84564414    -0.72100
Cu603      Cu  0.44272011  0.44178306  0.79218526     1.04600
Cu604      Cu  0.44229352  0.44121341  0.84783532     1.04300
C605        C  0.39936152  0.48746664  0.82119729     0.94200
C606        C  0.48604428  0.39497625  0.82351229     0.93300
C607        C  0.39669806  0.39927685  0.82141986     0.85500
C608        C  0.48835008  0.48371218  0.82337899     0.91800
O609        O  0.08712651  0.40253101  0.97888297    -0.72000
O610        O  0.08918589  0.47445827  0.90870045    -0.73000
O611        O  0.08708140  0.47276595  0.97880197    -0.61600
O612        O  0.08941083  0.40176366  0.90779154    -0.70000
O613        O  0.03776453  0.40810478  0.90737512    -0.69600
O614        O  0.03521089  0.46812754  0.97492127    -0.60800
O615        O  0.03757036  0.47227697  0.91080416    -0.73300
O616        O  0.03554258  0.40394003  0.97147525    -0.72100
Cu617      Cu  0.09080902  0.43781760  0.94351134     1.04600
Cu618      Cu  0.03558632  0.43810922  0.94111399     1.04300
C619        C  0.05932118  0.39215773  0.98583402     0.94200
C620        C  0.06203290  0.48489970  0.89893655     0.93300
C621        C  0.05903330  0.48133915  0.98739586     0.85500
C622        C  0.06198910  0.39377614  0.89680816     0.91800
O623        O  0.40554391  0.03516589  0.91278537    -0.72000
O624        O  0.47610871  0.03508285  0.96918826    -0.73000
O625        O  0.41229457  0.03522358  0.97662641    -0.61600
O626        O  0.46909166  0.03377031  0.90568572    -0.70000
O627        O  0.47671850  0.08531025  0.90717566    -0.69600
O628        O  0.40346719  0.08670115  0.97524149    -0.60800
O629        O  0.47367832  0.08633000  0.97837505    -0.73300
O630        O  0.40679787  0.08676409  0.90490733    -0.72100
Cu631      Cu  0.44071964  0.03377322  0.94117013     1.04600
Cu632      Cu  0.44022119  0.08896880  0.94146908     1.04300
C633        C  0.39574105  0.05934864  0.89783273     0.94200
C634        C  0.48605255  0.05906598  0.98419679     0.93300
C635        C  0.39676477  0.05913995  0.98630848     0.85500
C636        C  0.48371425  0.05779077  0.89562997     0.91800
O637        O  0.29292651  0.47666027  0.97260139    -0.72000
O638        O  0.29477188  0.40556046  0.90060809    -0.73000
O639        O  0.29314577  0.40564269  0.97165839    -0.61600
O640        O  0.29549757  0.47628972  0.90114854    -0.70000
O641        O  0.34732330  0.47080812  0.90448721    -0.69600
O642        O  0.34510113  0.41094048  0.97177911    -0.60800
O643        O  0.34643010  0.40685313  0.90786068    -0.73300
O644        O  0.34475647  0.47472130  0.96889686    -0.72100
Cu645      Cu  0.29143244  0.44107957  0.93641826     1.04600
Cu646      Cu  0.34682053  0.44081429  0.93826080     1.04300
C647        C  0.32030291  0.48646307  0.98206913     0.94200
C648        C  0.32273172  0.39530077  0.89343306     0.93300
C649        C  0.32067225  0.39751871  0.98240733     0.85500
C650        C  0.32351360  0.48449567  0.89225172     0.91800
O651        O  0.47587726  0.29510068  0.97619628    -0.72000
O652        O  0.40398622  0.29540103  0.90619876    -0.73000
O653        O  0.47411702  0.29591842  0.90509062    -0.61600
O654        O  0.40588804  0.29414974  0.97756716    -0.70000
O655        O  0.40232448  0.34495162  0.96768348    -0.69600
O656        O  0.47661452  0.34719373  0.91450149    -0.60800
O657        O  0.41313253  0.34660035  0.90422385    -0.73300
O658        O  0.46625279  0.34638952  0.97860568    -0.72100
Cu659      Cu  0.44000978  0.29244646  0.94121863     1.04600
Cu660      Cu  0.43952508  0.34734331  0.94135546     1.04300
C661        C  0.48180103  0.32248541  0.98832709     0.94200
C662        C  0.39829484  0.32277486  0.89378596     0.93300
C663        C  0.48641646  0.32310082  0.89922028     0.85500
C664        C  0.39260738  0.32111157  0.98306402     0.91800
C665        C  0.15664499  0.03723855  0.00954224    -0.13400
C666        C  0.17236932  0.01499387  0.53337597     0.17000
C667        C  0.15325025  0.00313805  0.55811304     0.03300
C668        C  0.12011631  0.00501508  0.55547974    -0.11900
C669        C  0.10552899  0.02016903  0.52959425    -0.03000
C670        C  0.12358013  0.03944387  0.00806302     0.02500
C671        C  0.20727371  0.01737380  0.53584136     0.09400
N672        N  0.16681490  0.99086685  0.58680334     0.65700
H673        H  0.10587976  0.99464694  0.57389427     0.18600
N674        N  0.10995566  0.06031710  0.98518292     0.76200
H675        H  0.17065142  0.04974087  0.99199131     0.10100
C676        C  0.22655022  0.49543965  0.52870996     0.03800
C677        C  0.25943262  0.49908455  0.52890412    -0.04900
C678        C  0.27388284  0.02658020  0.53207975    -0.23300
C679        C  0.25301429  0.05229541  0.53978781     0.13100
C680        C  0.22028929  0.04705876  0.54225128    -0.12400
N681        N  0.21414520  0.46361558  0.02601747     0.64800
H682        H  0.27436894  0.47677260  0.02816887     0.12600
N683        N  0.26348981  0.08419608  0.54403017     0.61400
H684        H  0.20463692  0.06689140  0.54763539     0.08800
O685        O  0.11406351  0.08966322  0.98928915    -0.40100
O686        O  0.10502044  0.05002687  0.95734744    -0.39200
O687        O  0.16799003  0.00864042  0.61101702    -0.39200
O688        O  0.16796600  0.96123286  0.59066410    -0.37000
O689        O  0.25618935  0.10406658  0.52277141    -0.37900
O690        O  0.26685700  0.09429971  0.57216939    -0.34000
O691        O  0.20961722  0.45312767  0.99819642    -0.35400
O692        O  0.21846470  0.44422855  0.04836064    -0.39700
C693        C  0.33067425  0.15517308  0.00507688    -0.13400
C694        C  0.34927768  0.17351977  0.52509639     0.17000
C695        C  0.37175709  0.15703979  0.54361828     0.03300
C696        C  0.37186492  0.12374235  0.54393951    -0.11900
C697        C  0.35041342  0.10644533  0.52506357    -0.03000
C698        C  0.33126886  0.12185287  0.00430604     0.02500
C699        C  0.34768537  0.20870937  0.52502798     0.09400
N700        N  0.39553660  0.17400820  0.56085352     0.65700
H701        H  0.38910821  0.11129246  0.55858715     0.18600
N702        N  0.31086330  0.10589773  0.98169191     0.76200
H703        H  0.31467133  0.16817348  0.98955522     0.10100
C704        C  0.35715984  0.22472707  0.99813484     0.03800
C705        C  0.35310559  0.25780256  0.99778318    -0.04900
C706        C  0.34414156  0.27626392  0.52600876    -0.23300
C707        C  0.33370353  0.25786062  0.55251930     0.13100
C708        C  0.33644927  0.22469221  0.55192706    -0.12400
N709        N  0.37077977  0.20892862  0.97117531     0.64800
H710        H  0.35680096  0.26996316  0.97557087     0.12600
N711        N  0.31638896  0.27131670  0.57847563     0.61400
H712        H  0.32861074  0.21117259  0.57236295     0.08800
O713        O  0.29227108  0.12180315  0.96416146    -0.40100
O714        O  0.31099368  0.07617342  0.97870907    -0.39200
O715        O  0.38983047  0.18342625  0.58883387    -0.39200
O716        O  0.41876379  0.18545980  0.54593055    -0.37000
O717        O  0.28640237  0.27076929  0.57782759    -0.37900
O718        O  0.33040857  0.27851713  0.60403520    -0.34000
O719        O  0.35340251  0.20179364  0.94774003    -0.35400
O720        O  0.39815857  0.19673672  0.97346780    -0.39700
C721        C  0.03413398  0.15568446  0.50162705    -0.13400
C722        C  0.03282468  0.17104269  0.53123681     0.17000
C723        C  0.03135327  0.15220092  0.55900425     0.03300
C724        C  0.03096041  0.11898869  0.55654441    -0.11900
C725        C  0.03171336  0.10344366  0.52690025    -0.03000
C726        C  0.03404176  0.12245491  0.49900961     0.02500
C727        C  0.03166357  0.20653828  0.53205124     0.09400
N728        N  0.52970175  0.17036329  0.58901881     0.65700
H729        H  0.52856073  0.10939471  0.57760896     0.18600
N730        N  0.03594758  0.11059959  0.96759369     0.76200
H731        H  0.03277462  0.17084691  0.98014946     0.10100
C732        C  0.05543890  0.22513250  0.51740758     0.03800
C733        C  0.05255649  0.25823151  0.51687231    -0.04900
C734        C  0.02615167  0.27355124  0.53007546    -0.23300
C735        C  0.50145489  0.25885777  0.54341220     0.13100
C736        C  0.50437033  0.22562392  0.54405630    -0.12400
N737        N  0.08316138  0.21104808  0.50361654     0.64800
H738        H  0.07125837  0.27215220  0.50616385     0.12600
N739        N  0.47467701  0.27391537  0.55806024     0.61400
H740        H  0.48555748  0.21179548  0.55460701     0.08800
O741        O  0.01534642  0.11750287  0.94684853    -0.40100
O742        O  0.06369654  0.10506311  0.95791319    -0.39200
O743        O  0.50365615  0.17142590  0.60380915    -0.39200
O744        O  0.55524854  0.17243982  0.60464520    -0.37000
O745        O  0.47729711  0.28530796  0.58575484    -0.37900
O746        O  0.45047293  0.28060609  0.54155666    -0.34000
O747        O  0.08467360  0.20844170  0.47368459    -0.35400
O748        O  0.10864283  0.21104992  0.51950303    -0.39700
C749        C  0.22451980  0.33470264  0.00022232    -0.13400
C750        C  0.20639374  0.35165782  0.52321745     0.17000
C751        C  0.22219901  0.37018507  0.54678738     0.03300
C752        C  0.25552526  0.37173629  0.54633137    -0.11900
C753        C  0.27311569  0.35632239  0.52265872    -0.03000
C754        C  0.25748230  0.33765168  0.99915393     0.02500
C755        C  0.17148363  0.34678854  0.52360036     0.09400
N756        N  0.20509393  0.38778065  0.57092515     0.65700
H757        H  0.26793482  0.38532691  0.56435998     0.18600
N758        N  0.27465310  0.32172977  0.97444745     0.76200
H759        H  0.21311752  0.31955268  0.98285015     0.10100
C760        C  0.15239585  0.34825319  0.99651666     0.03800
C761        C  0.11946600  0.34592363  0.99890268    -0.04900
C762        C  0.10462511  0.34526019  0.52796793    -0.23500
C763        C  0.12379019  0.34061925  0.55549301     0.13100
C764        C  0.15676655  0.33941064  0.55250685    -0.12400
N765        N  0.16549888  0.35581077  0.96613717     0.64800
H766        H  0.10545786  0.34660383  0.97724615     0.12600
N767        N  0.11101023  0.33979083  0.58701655     0.61400
H768        H  0.17103692  0.33548054  0.57368997     0.08800
O769        O  0.27781342  0.33530264  0.94788961    -0.40100
O770        O  0.27868521  0.29209728  0.97612151    -0.39200
O771        O  0.21868350  0.39516031  0.59674176    -0.39200
O772        O  0.17846959  0.40029951  0.56466240    -0.37000
O773        O  0.11118105  0.31375569  0.60180895    -0.37900
O774        O  0.11051262  0.36515766  0.60300360    -0.34000
O775        O  0.16592141  0.33470191  0.94478590    -0.35400
O776        O  0.16664062  0.38454152  0.95791660    -0.39700
C777        C  0.00823979  0.33828833  0.72512452    -0.13400
C778        C  0.03439555  0.35174505  0.70989505     0.17000
C779        C  0.05951344  0.36361595  0.72847354     0.03300
C780        C  0.05704547  0.36382579  0.76192289    -0.11900
C781        C  0.03047478  0.35071041  0.77726549    -0.03000
C782        C  0.00671698  0.33599458  0.75849620     0.02500
C783        C  0.03521906  0.35221515  0.67449220     0.09400
N784        N  0.08850940  0.37300269  0.71364553     0.65700
H785        H  0.07643038  0.37320464  0.77604828     0.18600
N786        N  0.98270370  0.31621150  0.77232649     0.76200
H787        H  0.98930096  0.32842512  0.71074576     0.10100
C788        C  0.03437257  0.32385107  0.65679498     0.03800
C789        C  0.03173793  0.32482712  0.62368043    -0.04900
C790        C  0.03117238  0.35365585  0.60713225    -0.23300
C791        C  0.03499181  0.38222598  0.62467604     0.13100
C792        C  0.03581035  0.38122838  0.65817553    -0.12400
N793        N  0.03776421  0.29374179  0.67195813     0.64800
H794        H  0.03061156  0.30257864  0.61082594     0.12600
N795        N  0.53848364  0.41497577  0.61028427     0.61400
H796        H  0.53427016  0.40538403  0.67224721     0.08800
O797        O  0.97059507  0.29411986  0.75607230    -0.40100
O798        O  0.97567371  0.31835322  0.80142262    -0.39200
O799        O  0.09322377  0.40186849  0.70757325    -0.39200
O800        O  0.10637833  0.35215569  0.70136570    -0.37000
O801        O  0.56619083  0.42076882  0.60061669    -0.37900
O802        O  0.52029979  0.43806275  0.61655129    -0.34000
O803        O  0.01366625  0.27644528  0.67512518    -0.35400
O804        O  0.06505240  0.28129074  0.67378669    -0.39700
C805        C  0.49973598  0.04057990  0.65584555    -0.13400
C806        C  0.02673116  0.02793007  0.67265468     0.17000
C807        C  0.05284787  0.01599485  0.65516067     0.03300
C808        C  0.05172403  0.01524060  0.62196753    -0.11900
C809        C  0.02546707  0.02661631  0.60515859    -0.03000
C810        C  0.49906422  0.04149886  0.62231160     0.02500
C811        C  0.02690973  0.02747044  0.70823601     0.09400
N812        N  0.08158065  0.00612816  0.67048592     0.65700
H813        H  0.07188400  0.00598914  0.60931643     0.18600
N814        N  0.47255486  0.05575744  0.60630066     0.76200
H815        H  0.47946877  0.04950087  0.66905219     0.10100
C816        C  0.02323920  0.05533643  0.72660160     0.03800
C817        C  0.02441548  0.05381143  0.75990558    -0.04900
C818        C  0.02916121  0.02500725  0.77589173    -0.23300
C819        C  0.03457559  0.49723776  0.75865490     0.13100
C820        C  0.03186747  0.49827941  0.72531116    -0.12400
N821        N  0.02000695  0.08572720  0.71198694     0.64800
H822        H  0.02213777  0.07564846  0.77332743     0.12600
N823        N  0.04537842  0.46834261  0.77303700     0.61400
H824        H  0.03470731  0.47647281  0.71189064     0.08800
O825        O  0.44834640  0.03948816  0.59983441    -0.40100
O826        O  0.47492829  0.08336465  0.59508975    -0.39200
O827        O  0.08824770  0.97691971  0.67151149    -0.39200
O828        O  0.10374028  0.02593261  0.67330984    -0.37000
O829        O  0.07470001  0.46503470  0.77847403    -0.37900
O830        O  0.02864690  0.44377020  0.77035744    -0.34000
O831        O  0.49110172  0.09880368  0.71135542    -0.35400
O832        O  0.04446307  0.10250969  0.70866251    -0.39700
C833        C  0.49508649  0.15474506  0.84383126    -0.13400
C834        C  0.02081162  0.17065600  0.85376164     0.17000
C835        C  0.04748799  0.15394937  0.86592164     0.03300
C836        C  0.04753722  0.12084459  0.86677453    -0.11900
C837        C  0.02293046  0.10358250  0.85324490    -0.03000
C838        C  0.49594620  0.12139495  0.84267765     0.02500
C839        C  0.01982148  0.20610718  0.85462192     0.09400
N840        N  0.07546045  0.17016017  0.87607867     0.65700
H841        H  0.06712425  0.10832316  0.87785781     0.18600
N842        N  0.46953936  0.10449781  0.82990071     0.76200
H843        H  0.47401539  0.16717185  0.83564861     0.10100
C844        C  0.01376351  0.22466610  0.82724146     0.03800
C845        C  0.01758440  0.25759766  0.82847965    -0.04900
C846        C  0.02598910  0.27309283  0.85676726    -0.23300
C847        C  0.03091920  0.25473575  0.88465777     0.13100
C848        C  0.02741963  0.22171250  0.88325654    -0.12400
N849        N  0.50605760  0.21134512  0.79853925     0.64800
H850        H  0.51460667  0.27197397  0.80741784     0.12600
N851        N  0.04092563  0.26856002  0.91423224     0.61400
H852        H  0.03154094  0.20799589  0.90470203     0.08800
O853        O  0.44471355  0.10129869  0.84630383    -0.40100
O854        O  0.47314609  0.08807783  0.80504593    -0.39200
O855        O  0.08528643  0.16676086  0.90431121    -0.39200
O856        O  0.09386276  0.18146617  0.85538003    -0.37000
O857        O  0.02224070  0.26780239  0.93763029    -0.37900
O858        O  0.07022736  0.27036629  0.92000510    -0.34000
O859        O  0.47732844  0.21259124  0.78994649    -0.35400
O860        O  0.52716478  0.20701596  0.77765982    -0.39700
C861        C  0.38490495  0.03801639  0.72296316    -0.13400
C862        C  0.35649302  0.03241592  0.70628352     0.17000
C863        C  0.32753672  0.53115551  0.72386087     0.03300
C864        C  0.32894861  0.53035046  0.75708714    -0.11900
C865        C  0.35799759  0.03222776  0.77430511    -0.03000
C866        C  0.38583994  0.03872953  0.75650650     0.02500
C867        C  0.35640877  0.03144182  0.67052892     0.09400
N868        N  0.29692261  0.53096860  0.70909036     0.65700
H869        H  0.30707626  0.52837449  0.76978838     0.18600
N870        N  0.41444879  0.04899177  0.77151296     0.76200
H871        H  0.40671695  0.04210548  0.70991187     0.10100
C872        C  0.37039374  0.05559011  0.65181354     0.03800
C873        C  0.36931638  0.05377064  0.61851747    -0.04900
C874        C  0.35451999  0.02848254  0.60315532    -0.23300
C875        C  0.33815794  0.50604625  0.62121227     0.13100
C876        C  0.33921385  0.50776734  0.65457239    -0.12400
N877        N  0.38436771  0.08304173  0.66587366     0.64800
H878        H  0.37963396  0.07263189  0.60451896     0.12600
N879        N  0.31964165  0.48206387  0.60600250     0.61400
H880        H  0.32724879  0.48974925  0.66825056     0.08800
O881        O  0.41970218  0.07837273  0.77212924    -0.40100
O882        O  0.43793450  0.03025985  0.77231552    -0.39200
O883        O  0.28190291  0.50520675  0.70773005    -0.39200
O884        O  0.28152650  0.55670598  0.70748233    -0.37000
O885        O  0.29127889  0.48813394  0.59825461    -0.37900
O886        O  0.33314790  0.45766434  0.59483899    -0.34000
O887        O  0.41423316  0.08541757  0.66583064    -0.35400
O888        O  0.36775490  0.10796576  0.66813394    -0.39700
C889        C  0.22692779  0.03954468  0.88150208    -0.13400
C890        C  0.21087591  0.03483812  0.85267336     0.17000
C891        C  0.22833230  0.02899373  0.82479436     0.03300
C892        C  0.26107670  0.02852983  0.82627936    -0.11900
C893        C  0.27786718  0.03266834  0.85446750    -0.03000
C894        C  0.26028695  0.03762820  0.88331665     0.02500
C895        C  0.17588476  0.03360146  0.85237884     0.09400
N896        N  0.21303145  0.02190983  0.79526197     0.65700
H897        H  0.27472812  0.02298342  0.80292047     0.18600
N898        N  0.27481926  0.03941525  0.91449380     0.76200
H899        H  0.21309891  0.04364916  0.90298147     0.10100
C900        C  0.15968211  0.50783146  0.86545039     0.03800
C901        C  0.12673305  0.50647312  0.86144013    -0.04900
C902        C  0.10814787  0.03272581  0.85166544    -0.23300
C903        C  0.12554186  0.05974980  0.84045394     0.13100
C904        C  0.15883420  0.05884788  0.83949190    -0.12400
N905        N  0.17545484  0.48334697  0.88328179     0.64800
H906        H  0.11581975  0.48371141  0.86371189     0.12600
N907        N  0.11128482  0.08906939  0.83088882     0.61400
H908        H  0.17158963  0.07905447  0.83015848     0.08800
O909        O  0.25888099  0.03264174  0.93900994    -0.40100
O910        O  0.30353189  0.04679303  0.91799284    -0.39200
O911        O  0.21189277  0.04304017  0.77404818    -0.39200
O912        O  0.21020224  0.99323440  0.78711983    -0.37000
O913        O  0.11590299  0.11278569  0.84864560    -0.37900
O914        O  0.10813082  0.09408761  0.80138344    -0.34000
O915        O  0.16324696  0.47371546  0.90892556    -0.35400
O916        O  0.20253938  0.47315264  0.87523133    -0.39700
C917        C  0.37623340  0.36322390  0.71823328    -0.13400
C918        C  0.34665219  0.35815744  0.70427686     0.17000
C919        C  0.32031579  0.35232947  0.72409310     0.03300
C920        C  0.32418802  0.35298706  0.75722542    -0.11900
C921        C  0.35422294  0.35657992  0.77149530    -0.03000
C922        C  0.38093531  0.36022045  0.75103178     0.02500
C923        C  0.34543911  0.35728688  0.66897759     0.09400
N924        N  0.29049111  0.34218772  0.71147844     0.65700
H925        H  0.30347712  0.34892926  0.77181025     0.18600
N926        N  0.41309587  0.35748583  0.76189698     0.76200
H927        H  0.39655808  0.36701005  0.70293428     0.10100
C928        C  0.32707725  0.37923592  0.65146021     0.03800
C929        C  0.32796906  0.37852155  0.61800888    -0.04900
C930        C  0.34925302  0.35821896  0.60207760    -0.23300
C931        C  0.37015019  0.33898257  0.61965591     0.13100
C932        C  0.36714865  0.33753825  0.65273633    -0.12400
N933        N  0.31061252  0.40448233  0.66733633     0.64800
H934        H  0.31314536  0.39473893  0.60448313     0.12600
N935        N  0.39611204  0.32297978  0.60443008     0.61400
H936        H  0.38295502  0.32202424  0.66600929     0.08800
O937        O  0.43547136  0.37001203  0.74647456    -0.40100
O938        O  0.41951647  0.34169618  0.78639834    -0.39200
O939        O  0.28711751  0.31311114  0.70522255    -0.39200
O940        O  0.26601068  0.35872031  0.71704559    -0.37000
O941        O  0.42241828  0.33688877  0.60188680    -0.37900
O942        O  0.39160779  0.29747365  0.58939513    -0.34000
O943        O  0.32613802  0.42610734  0.68104791    -0.35400
O944        O  0.28073176  0.40435688  0.66920025    -0.39700
C945        C  0.15861558  0.31858738  0.84825523    -0.13400
C946        C  0.17524234  0.34716274  0.85082827     0.17000
C947        C  0.15711269  0.37555176  0.85304100     0.03300
C948        C  0.12396603  0.37484494  0.85239072    -0.11900
C949        C  0.10751207  0.34626579  0.85285112    -0.03000
C950        C  0.12537973  0.31761674  0.85044544     0.02500
C951        C  0.21101137  0.34730592  0.84980713     0.09400
N952        N  0.17163679  0.40533241  0.85891777     0.65700
H953        H  0.11104164  0.39713623  0.85238866     0.18600
N954        N  0.11105219  0.28706506  0.85233566     0.76200
H955        H  0.17129196  0.29652066  0.84469180     0.10100
C956        C  0.23038632  0.32463941  0.86595162     0.03800
C957        C  0.26356715  0.32715485  0.86510572    -0.04900
C958        C  0.27839468  0.35173820  0.84875675    -0.23300
C959        C  0.25948723  0.37388129  0.83203597     0.13100
C960        C  0.22636394  0.37090612  0.83199576    -0.12400
N961        N  0.21730147  0.29898611  0.88367910     0.64800
H962        H  0.27790211  0.30995622  0.87792752     0.12600
N963        N  0.27318498  0.40015177  0.81573501     0.61400
H964        H  0.21261445  0.38746171  0.81784412     0.08800
O965        O  0.10668311  0.27172988  0.82685738    -0.40100
O966        O  0.11514849  0.27155096  0.87766774    -0.39200
O967        O  0.16916476  0.42686787  0.83819152    -0.39200
O968        O  0.17747290  0.41278978  0.88743717    -0.37000
O969        O  0.27326535  0.40014062  0.78567014    -0.37900
O970        O  0.27499013  0.42635628  0.83019323    -0.34000
O971        O  0.21855874  0.27145707  0.87181769    -0.35400
O972        O  0.21495478  0.30179890  0.91350381    -0.39700
C973        C  0.34488395  0.15899326  0.87300545    -0.13400
C974        C  0.35953559  0.17341052  0.84682904     0.17000
C975        C  0.37427292  0.15378251  0.82363922     0.03300
C976        C  0.37298875  0.12074599  0.82661520    -0.11900
C977        C  0.35775383  0.10666208  0.85235302    -0.03000
C978        C  0.34359656  0.12601065  0.87556211     0.02500
C979        C  0.35921429  0.20869140  0.84483633     0.09400
N980        N  0.38890214  0.16659441  0.79590899     0.65700
H981        H  0.38319043  0.10596122  0.80824459     0.18600
N982        N  0.32612833  0.11238687  0.90084741     0.76200
H983        H  0.33404422  0.17339413  0.89145443     0.10100
C984        C  0.33066084  0.22631652  0.84710092     0.03800
C985        C  0.33129138  0.25940438  0.84768425    -0.04900
C986        C  0.35985087  0.27606686  0.84672517    -0.23300
C987        C  0.38887352  0.25848156  0.84434723     0.13100
C988        C  0.38796889  0.22508825  0.84340318    -0.12400
N989        N  0.30051151  0.21112142  0.84843532     0.64800
H990        H  0.30897774  0.27218812  0.84935452     0.12600
N991        N  0.41932337  0.27353507  0.84265521     0.61400
H992        H  0.40998457  0.21169074  0.84204610     0.08800
O993        O  0.29658775  0.10862968  0.89765537    -0.40100
O994        O  0.34086843  0.09879058  0.92318495    -0.39200
O995        O  0.41879081  0.16564150  0.79385515    -0.39200
O996        O  0.37272002  0.16841229  0.77062595    -0.37000
O997        O  0.42208207  0.30036471  0.83007858    -0.37900
O998        O  0.44400255  0.25937980  0.85241679    -0.34000
O999        O  0.28604339  0.21023449  0.87472313    -0.35400
O1000       O  0.28482933  0.20799708  0.82298429    -0.39700
C1001       C  0.36807033  0.86653152  0.36274652     0.46400
H1002       H  0.38227350  0.88128519  0.37868454    -0.02600
C1003       C  0.33527375  0.83130938  0.32608036     0.46500
H1004       H  0.32088817  0.81561458  0.31055273    -0.02600
C1005       C  0.33242886  0.87185347  0.36799901    -0.16300
C1006       C  0.37440749  0.87384327  0.32747737    -0.16100
C1007       C  0.37538783  0.83129034  0.36836535    -0.16400
C1008       C  0.31457401  0.85305651  0.34832153    -0.16400
C1009       C  0.35692471  0.85480789  0.30730128    -0.16000
C1010       C  0.35854730  0.81213191  0.34817718    -0.16300
C1011       C  0.36641295  0.51784423  0.36453431     0.46400
H1012       H  0.38190200  0.00282857  0.37972769    -0.02600
C1013       C  0.33273380  0.55444672  0.32956093     0.46500
H1014       H  0.31808702  0.57049087  0.31445240    -0.02600
C1015       C  0.37374804  0.51283619  0.32916523    -0.16300
C1016       C  0.33100305  0.51176883  0.36926566    -0.16100
C1017       C  0.37232478  0.55290345  0.37184431    -0.16400
C1018       C  0.35611124  0.53257913  0.30999985    -0.16400
C1019       C  0.31263260  0.53236536  0.35201542    -0.16000
C1020       C  0.35481801  0.57262446  0.35278785    -0.16300
C1021       C  0.01816876  0.51290549  0.36596277     0.46400
H1022       H  0.50380042  0.00242898  0.38117860    -0.02600
C1023       C  0.04916732  0.54944459  0.32959775     0.46500
H1024       H  0.06026488  0.56556452  0.31282461    -0.02600
C1025       C  0.05429120  0.50949470  0.37224661    -0.16300
C1026       C  0.01220731  0.50547825  0.33068523    -0.16100
C1027       C  0.00904933  0.54761307  0.37139879    -0.16400
C1028       C  0.07177919  0.52978698  0.35211262    -0.16400
C1029       C  0.02940165  0.52438784  0.31092368    -0.16000
C1030       C  0.02546820  0.56732171  0.35202238    -0.16300
C1031       C  0.01870756  0.86232187  0.36615260     0.46400
H1032       H  0.50382995  0.88140595  0.38150178    -0.02600
C1033       C  0.05204653  0.82552094  0.33106937     0.46500
H1034       H  0.06569666  0.80982404  0.31496318    -0.02600
C1035       C  0.01166628  0.86790091  0.33068243    -0.16300
C1036       C  0.05453019  0.86795535  0.37110541    -0.16100
C1037       C  0.01241729  0.82739032  0.37352590    -0.16400
C1038       C  0.03012790  0.84866383  0.31170680    -0.16400
C1039       C  0.07280787  0.84740662  0.35258535    -0.16000
C1040       C  0.03030102  0.80735336  0.35507605    -0.16300
C1041       C  0.01502237  0.86332725  0.01600784     0.46400
H1042       H  0.50167407  0.88174615  0.50114815    -0.02600
C1043       C  0.04890975  0.82767141  0.05158879     0.46500
H1044       H  0.06312413  0.81116783  0.06628415    -0.02600
C1045       C  0.05064497  0.86747161  0.00942577    -0.16300
C1046       C  0.00992209  0.87093650  0.05142026    -0.16100
C1047       C  0.00700196  0.82827958  0.01125758    -0.16400
C1048       C  0.06907088  0.84797908  0.02856484    -0.16400
C1049       C  0.02873256  0.85239378  0.07083558    -0.16000
C1050       C  0.02525039  0.80913680  0.03016320    -0.16300
C1051       C  0.36263869  0.86472330  0.01331091     0.46400
H1052       H  0.37950258  0.88061649  0.49851189    -0.02600
C1053       C  0.32546904  0.83300483  0.04849654     0.46500
H1054       H  0.30821110  0.82234122  0.06449997    -0.02600
C1055       C  0.32755621  0.87245447  0.00660249    -0.16300
C1056       C  0.36700991  0.82866100  0.00788655    -0.16100
C1057       C  0.36910096  0.87133519  0.04849286    -0.16400
C1058       C  0.30777478  0.85506520  0.02505247    -0.16400
C1059       C  0.34637589  0.81067092  0.02661769    -0.16000
C1060       C  0.34885972  0.85468060  0.06737477    -0.16300
C1061       C  0.01541518  0.51423924  0.01548019     0.46400
H1062       H  0.50058261  0.00245943  0.50000935    -0.02600
C1063       C  0.05051820  0.54872492  0.05088570     0.46500
H1064       H  0.06596188  0.56327804  0.06655168    -0.02600
C1065       C  0.00773789  0.50898886  0.05059231    -0.16300
C1066       C  0.05074844  0.50683530  0.01075768    -0.16100
C1067       C  0.01050307  0.54976916  0.00869049    -0.16400
C1068       C  0.02619319  0.52768488  0.06977414    -0.16400
C1069       C  0.06981531  0.52533154  0.02923283    -0.16000
C1070       C  0.02979362  0.56872821  0.02700020    -0.16300
C1071       C  0.36346655  0.51563649  0.01417213     0.46400
H1072       H  0.37876492  0.00251411  0.49802606    -0.02600
C1073       C  0.33007639  0.55086811  0.05079181     0.46500
H1074       H  0.31683079  0.56595565  0.06763162    -0.02600
C1075       C  0.32778760  0.51062278  0.00819446    -0.16300
C1076       C  0.36973507  0.50839349  0.04923717    -0.16100
C1077       C  0.37037622  0.55091232  0.00909910    -0.16400
C1078       C  0.30936146  0.52933255  0.02861644    -0.16400
C1079       C  0.35229373  0.52743573  0.06887071    -0.16000
C1080       C  0.35199947  0.56997077  0.02802674    -0.16300
O1081       O  0.40467367  0.96933499  0.03250137    -0.72000
O1082       O  0.47451822  0.91099892  0.03428507    -0.73000
O1083       O  0.40999217  0.90508267  0.03253187    -0.61600
O1084       O  0.46884977  0.97498676  0.03361535    -0.70000
O1085       O  0.47469658  0.97523202  0.08564555    -0.69600
O1086       O  0.40226084  0.90560551  0.08434516    -0.60800
O1087       O  0.47326298  0.90414223  0.08616241    -0.73300
O1088       O  0.40411360  0.97612648  0.08455660    -0.72100
Cu1089     Cu  0.43954313  0.94002817  0.03220819     1.04600
Cu1090     Cu  0.43857049  0.94022317  0.08778532     1.04300
C1091       C  0.39366598  0.98353093  0.05672712     0.94200
C1092       C  0.48508203  0.89707605  0.05883105     0.93300
C1093       C  0.39503071  0.89478839  0.05651121     0.85500
C1094       C  0.48247550  0.98616042  0.05809184     0.91800
O1095       O  0.40775047  0.97864408  0.29398101    -0.72000
O1096       O  0.47845165  0.90678753  0.29533451    -0.73000
O1097       O  0.40719603  0.90958633  0.29408015    -0.61600
O1098       O  0.47804405  0.97798528  0.29532843    -0.70000
O1099       O  0.47646658  0.97251156  0.34737655    -0.69600
O1100       O  0.40923185  0.91233823  0.34621904    -0.60800
O1101       O  0.47340192  0.90855927  0.34741199    -0.73300
O1102       O  0.41237537  0.97633992  0.34609057    -0.72100
Cu1103     Cu  0.44297035  0.94321378  0.29210737     1.04600
Cu1104     Cu  0.44279115  0.94250280  0.34780054     1.04300
C1105       C  0.39934827  0.98842772  0.32172862     0.94200
C1106       C  0.48675106  0.89663270  0.32315457     0.93300
C1107       C  0.39761088  0.89999376  0.32134141     0.85500
C1108       C  0.48824445  0.98568853  0.32313813     0.91800
O1109       O  0.08753152  0.90253645  0.47775316    -0.72000
O1110       O  0.08911865  0.97377892  0.40702261    -0.73000
O1111       O  0.08710427  0.97259829  0.47728072    -0.61600
O1112       O  0.08958794  0.90121824  0.40682000    -0.70000
O1113       O  0.03820809  0.90937134  0.40433379    -0.69600
O1114       O  0.03533701  0.96595383  0.47564491    -0.60800
O1115       O  0.03761363  0.97359492  0.41158097    -0.73300
O1116       O  0.03619259  0.90176251  0.46858864    -0.72100
Cu1117     Cu  0.09094736  0.93751236  0.44217266     1.04600
Cu1118     Cu  0.03586141  0.93766443  0.43999376     1.04300
C1119       C  0.05997530  0.89106724  0.48383396     0.94200
C1120       C  0.06197081  0.98521761  0.39846548     0.93300
C1121       C  0.05916508  0.98004731  0.48717030     0.85500
C1122       C  0.06235881  0.89409136  0.39481750     0.91800
O1123       O  0.40652852  0.53581558  0.41151723    -0.72000
O1124       O  0.47509701  0.53629994  0.47017728    -0.73000
O1125       O  0.41108899  0.53628567  0.47541364    -0.61600
O1126       O  0.47020287  0.53459787  0.40654350    -0.70000
O1127       O  0.47663564  0.58632757  0.40687442    -0.69600
O1128       O  0.40321238  0.58791507  0.47486003    -0.60800
O1129       O  0.47362063  0.58776084  0.47804132    -0.73300
O1130       O  0.40656645  0.58758728  0.40465505    -0.72100
Cu1131     Cu  0.44070071  0.53471493  0.44102365     1.04600
Cu1132     Cu  0.44006775  0.59004341  0.44113623     1.04300
C1133       C  0.39605798  0.56006300  0.39714912     0.94200
C1134       C  0.48554670  0.56045803  0.48453669     0.93300
C1135       C  0.39589090  0.56030044  0.48536903     0.85500
C1136       C  0.48426984  0.55871549  0.39595179     0.91800
O1137       O  0.29352692  0.97785625  0.47130859    -0.72000
O1138       O  0.29535497  0.90546477  0.40081237    -0.73000
O1139       O  0.29392346  0.90676033  0.47183704    -0.61600
O1140       O  0.29554701  0.97634997  0.40010532    -0.70000
O1141       O  0.34730706  0.97370137  0.40616036    -0.69600
O1142       O  0.34601559  0.90965245  0.46929613    -0.60800
O1143       O  0.34712076  0.90971662  0.40542619    -0.73300
O1144       O  0.34535930  0.97342996  0.47052292    -0.72100
Cu1145     Cu  0.29194825  0.94160979  0.43594054     1.04600
Cu1146     Cu  0.34737898  0.94160326  0.43782466     1.04300
C1147       C  0.32081091  0.98651778  0.48211814     0.94200
C1148       C  0.32344738  0.89662024  0.39242749     0.93300
C1149       C  0.32156159  0.89750730  0.48133378     0.85500
C1150       C  0.32346096  0.98612811  0.39269759     0.91800
O1151       O  0.47733414  0.79643419  0.47646118    -0.72000
O1152       O  0.40527030  0.79631906  0.40642004    -0.73000
O1153       O  0.47540618  0.79724729  0.40521340    -0.61600
O1154       O  0.40720634  0.79512922  0.47784308    -0.70000
O1155       O  0.40378374  0.84596781  0.46809655    -0.69600
O1156       O  0.47753657  0.84860106  0.41425621    -0.60800
O1157       O  0.41396664  0.84759409  0.40452249    -0.73300
O1158       O  0.46769763  0.84771681  0.47847345    -0.72100
Cu1159     Cu  0.44137307  0.79359072  0.44144705     1.04600
Cu1160     Cu  0.44068627  0.84851276  0.44144279     1.04300
C1161       C  0.48325536  0.82390867  0.48841021     0.94200
C1162       C  0.39932680  0.82366141  0.39403817     0.93300
C1163       C  0.48744152  0.82449977  0.39906509     0.85500
C1164       C  0.39402055  0.82212579  0.48343207     0.91800
C1165       C  0.15656741  0.53206939  0.50630811    -0.13400
C1166       C  0.17205686  0.51906787  0.03264986     0.17000
C1167       C  0.15338042  0.50753507  0.05783416     0.03300
C1168       C  0.12021902  0.50882765  0.05552815    -0.11900
C1169       C  0.10505597  0.52276068  0.02929185    -0.03000
C1170       C  0.12346224  0.53379978  0.50439411     0.02500
C1171       C  0.20704835  0.52100779  0.03443202     0.09400
N1172       N  0.16745502  0.49611050  0.08662305     0.65700
H1173       H  0.10641186  0.49887633  0.07447532     0.18600
N1174       N  0.10993984  0.54889259  0.47716632     0.76200
H1175       H  0.17068095  0.54147861  0.48696636     0.10100
C1176       C  0.22671414  0.99566393  0.03087752     0.03800
C1177       C  0.25967063  0.99903580  0.02982910    -0.04900
C1178       C  0.27394443  0.52783495  0.03158186    -0.23300
C1179       C  0.25383460  0.55458188  0.03766803     0.13100
C1180       C  0.22082415  0.55074370  0.03851642    -0.12400
N1181       N  0.21569991  0.96277459  0.51637748     0.64800
H1182       H  0.27566683  0.97574207  0.52589947     0.12600
N1183       N  0.26555149  0.58574232  0.04385689     0.61400
H1184       H  0.20570862  0.57132164  0.04240700     0.08800
O1185       O  0.11684857  0.57758147  0.47271692    -0.40100
O1186       O  0.10330444  0.53206010  0.45319009    -0.39200
O1187       O  0.16919956  0.51462460  0.11023072    -0.39200
O1188       O  0.16869396  0.46660251  0.09135853    -0.37000
O1189       O  0.25984737  0.60701616  0.02352053    -0.37900
O1190       O  0.26834294  0.59420374  0.07260543    -0.34000
O1191       O  0.20631355  0.96142050  0.48782144    -0.35400
O1192       O  0.22472611  0.93761166  0.52974225    -0.39700
C1193       C  0.32991310  0.65672228  0.50503826    -0.13400
C1194       C  0.34994659  0.67207699  0.02623892     0.17000
C1195       C  0.37082079  0.65569787  0.04658752     0.03300
C1196       C  0.37123472  0.62240554  0.04658780    -0.11900
C1197       C  0.35134375  0.60509854  0.02603323    -0.03000
C1198       C  0.33001500  0.62340675  0.50412446     0.02500
C1199       C  0.34814311  0.70717244  0.02594897     0.09400
N1200       N  0.39233187  0.67279243  0.06652044     0.65700
H1201       H  0.38737648  0.60999962  0.06245084     0.18600
N1202       N  0.30887248  0.60791009  0.48185631     0.76200
H1203       H  0.31370250  0.67001460  0.48998667     0.10100
C1204       C  0.35723386  0.72597966  0.49800142     0.03800
C1205       C  0.35387060  0.75911093  0.49804374    -0.04900
C1206       C  0.34305638  0.77459691  0.02562340    -0.23300
C1207       C  0.33027533  0.75624033  0.05113673     0.13100
C1208       C  0.33371988  0.72313693  0.05125947    -0.12400
N1209       N  0.37010209  0.71019556  0.47066994     0.64800
H1210       H  0.35754616  0.77142043  0.47589988     0.12600
N1211       N  0.30976261  0.76948159  0.07472261     0.61400
H1212       H  0.32391047  0.70963626  0.07082246     0.08800
O1213       O  0.29199134  0.62425143  0.46305393    -0.40100
O1214       O  0.30597096  0.57822500  0.48107249    -0.39200
O1215       O  0.38355271  0.68137350  0.09396594    -0.39200
O1216       O  0.41647538  0.68540784  0.05425637    -0.37000
O1217       O  0.28034808  0.77153411  0.06900246    -0.37900
O1218       O  0.31976785  0.77411664  0.10269401    -0.34000
O1219       O  0.35206091  0.70292107  0.44778944    -0.35400
O1220       O  0.39757986  0.69811377  0.47217874    -0.39700
C1221       C  0.03244331  0.65646863  0.00122393    -0.13400
C1222       C  0.03135809  0.67182209  0.03080686     0.17000
C1223       C  0.03004908  0.65312689  0.05863198     0.03300
C1224       C  0.02952195  0.61994548  0.05628836    -0.11900
C1225       C  0.03024900  0.60434620  0.02668284    -0.03000
C1226       C  0.03238634  0.62326668  0.99869679     0.02500
C1227       C  0.03037710  0.70721654  0.03155813     0.09400
N1228       N  0.53062289  0.66814745  0.08958767     0.65700
H1229       H  0.52815030  0.60739112  0.07763723     0.18600
N1230       N  0.03570365  0.60916960  0.46824394     0.76200
H1231       H  0.03163713  0.66966525  0.47994560     0.10100
C1232       C  0.05450053  0.72555251  0.01725277     0.03800
C1233       C  0.05180490  0.75862454  0.01648075    -0.04900
C1234       C  0.02529382  0.77411190  0.02924686    -0.23300
C1235       C  0.50181939  0.75742543  0.04371365     0.13100
C1236       C  0.50452923  0.72416978  0.04453736    -0.12400
N1237       N  0.08242422  0.71120264  0.00417845     0.64800
H1238       H  0.07076909  0.77239284  0.00604002     0.12600
N1239       N  0.47486686  0.77266513  0.05783244     0.61400
H1240       H  0.48545983  0.71047009  0.05480237     0.08800
O1241       O  0.01559577  0.61561137  0.44686945    -0.40100
O1242       O  0.06376019  0.60376165  0.45947482    -0.39200
O1243       O  0.50493647  0.66958683  0.10496811    -0.39200
O1244       O  0.55654675  0.66939291  0.10467659    -0.37000
O1245       O  0.47734875  0.78512897  0.08507254    -0.37900
O1246       O  0.45042194  0.77811921  0.04123489    -0.34000
O1247       O  0.08493556  0.70906125  0.97428414    -0.35400
O1248       O  0.10730672  0.71031560  0.02097823    -0.39700
C1249       C  0.22604381  0.83369079  0.49964279    -0.13400
C1250       C  0.20611097  0.84996982  0.02225139     0.17000
C1251       C  0.22162054  0.86891167  0.04565520     0.03300
C1252       C  0.25493698  0.87067395  0.04557199    -0.11900
C1253       C  0.27288582  0.85495703  0.02237190    -0.03000
C1254       C  0.25906311  0.83635805  0.49928143     0.02500
C1255       C  0.17116351  0.84504767  0.02258650     0.09400
N1256       N  0.20411878  0.88654390  0.06940734     0.65700
H1257       H  0.26703926  0.88457946  0.06358031     0.18600
N1258       N  0.27678811  0.81858877  0.47629705     0.76200
H1259       H  0.21483735  0.81780998  0.48278111     0.10100
C1260       C  0.15373003  0.84814216  0.49468590     0.03800
C1261       C  0.12076758  0.84583459  0.49708146    -0.04900
C1262       C  0.10427158  0.84494336  0.02723609    -0.23500
C1263       C  0.12343040  0.84000312  0.05470197     0.13100
C1264       C  0.15638261  0.83817455  0.05161012    -0.12400
N1265       N  0.16700603  0.85557327  0.46435228     0.64800
H1266       H  0.10675955  0.84655435  0.47542854     0.12600
N1267       N  0.11069552  0.83944165  0.08625482     0.61400
H1268       H  0.17064238  0.83419619  0.07279124     0.08800
O1269       O  0.27973659  0.82956227  0.44852354    -0.40100
O1270       O  0.28164053  0.78939697  0.48094117    -0.39200
O1271       O  0.21691167  0.89317489  0.09583431    -0.39200
O1272       O  0.17790256  0.89953968  0.06241917    -0.37000
O1273       O  0.11043059  0.81343188  0.10108851    -0.37900
O1274       O  0.11047270  0.86486281  0.10217231    -0.34000
O1275       O  0.16738524  0.83449121  0.44297937    -0.35400
O1276       O  0.16881289  0.88429876  0.45624964    -0.39700
C1277       C  0.00927467  0.83620499  0.22407381    -0.13400
C1278       C  0.03454661  0.85130609  0.20893871     0.17000
C1279       C  0.05882130  0.86472631  0.22757657     0.03300
C1280       C  0.05626211  0.86473047  0.26101023    -0.11900
C1281       C  0.03058743  0.84985930  0.27625040    -0.03000
C1282       C  0.00786990  0.83370045  0.25740079     0.02500
C1283       C  0.03521463  0.85208647  0.17357274     0.09400
N1284       N  0.08720779  0.87591658  0.21283855     0.65700
H1285       H  0.07496961  0.87529435  0.27520382     0.18600
N1286       N  0.98510320  0.81243694  0.27109408     0.76200
H1287       H  0.99094660  0.82529686  0.20966657     0.10100
C1288       C  0.03515218  0.82385960  0.15564835     0.03800
C1289       C  0.03195107  0.82502858  0.12261656    -0.04900
C1290       C  0.03061845  0.85396873  0.10628153    -0.23300
C1291       C  0.03371260  0.88250917  0.12406280     0.13100
C1292       C  0.03464339  0.88123883  0.15753115    -0.12400
N1293       N  0.04013726  0.79377209  0.17043844     0.64800
H1294       H  0.03109919  0.80281905  0.10966454     0.12600
N1295       N  0.53872877  0.91424476  0.10873090     0.61400
H1296       H  0.53459265  0.90569249  0.17095961     0.08800
O1297       O  0.97491828  0.78930783  0.25495494    -0.40100
O1298       O  0.97744917  0.81446610  0.30002894    -0.39200
O1299       O  0.09040915  0.90511429  0.20733694    -0.39200
O1300       O  0.10622496  0.85626410  0.20031246    -0.37000
O1301       O  0.56508239  0.91873628  0.09528377    -0.37900
O1302       O  0.52211604  0.93806904  0.11644902    -0.34000
O1303       O  0.01679736  0.77562205  0.17435489    -0.35400
O1304       O  0.06787172  0.78223009  0.17104366    -0.39700
C1305       C  0.49936753  0.54031690  0.15578218    -0.13400
C1306       C  0.02517884  0.52743553  0.17228211     0.17000
C1307       C  0.05148739  0.51587135  0.15483654     0.03300
C1308       C  0.05058618  0.51558226  0.12168444    -0.11900
C1309       C  0.02452942  0.52737138  0.10493036    -0.03000
C1310       C  0.49856917  0.54034309  0.12221499     0.02500
C1311       C  0.02519737  0.52663246  0.20778211     0.09400
N1312       N  0.08019115  0.50595074  0.17017589     0.65700
H1313       H  0.07071299  0.50626303  0.10902364     0.18600
N1314       N  0.47148727  0.55313059  0.10591232     0.76200
H1315       H  0.47882879  0.54875734  0.16888841     0.10100
C1316       C  0.02116216  0.55431007  0.22631091     0.03800
C1317       C  0.02263412  0.55259824  0.25955658    -0.04900
C1318       C  0.02794355  0.52378010  0.27533604    -0.23300
C1319       C  0.03425014  0.99636151  0.25753537     0.13100
C1320       C  0.03192232  0.99756323  0.22414525    -0.12400
N1321       N  0.01727721  0.58473154  0.21190519     0.64800
H1322       H  0.02024770  0.57434269  0.27307713     0.12600
N1323       N  0.04443949  0.96724142  0.27189134     0.61400
H1324       H  0.03527019  0.97591205  0.21056322     0.08800
O1325       O  0.44700450  0.53646954  0.10209452    -0.40100
O1326       O  0.47339184  0.57956772  0.09206192    -0.39200
O1327       O  0.08705039  0.47677091  0.17071221    -0.39200
O1328       O  0.10223853  0.52583851  0.17329329    -0.37000
O1329       O  0.07352349  0.96371706  0.27837804    -0.37900
O1330       O  0.02770251  0.94279092  0.26821837    -0.34000
O1331       O  0.49160346  0.60030363  0.21185043    -0.35400
O1332       O  0.04136263  0.60204916  0.20865010    -0.39700
C1333       C  0.49520077  0.65580346  0.34455527    -0.13400
C1334       C  0.02209376  0.66942324  0.35615124     0.17000
C1335       C  0.04779767  0.65188103  0.36929620     0.03300
C1336       C  0.04778559  0.61875172  0.36821609    -0.11900
C1337       C  0.02302594  0.60230571  0.35382473    -0.03000
C1338       C  0.49628592  0.62243865  0.34288896     0.02500
C1339       C  0.02221051  0.70494962  0.35605399     0.09400
N1340       N  0.07453578  0.66719727  0.38340329     0.65700
H1341       H  0.06747771  0.60566723  0.37859640     0.18600
N1342       N  0.46981500  0.60549791  0.33022484     0.76200
H1343       H  0.47424772  0.66821447  0.33607557     0.10100
C1344       C  0.01747603  0.72278898  0.32789714     0.03800
C1345       C  0.02101996  0.75579156  0.32840887    -0.04900
C1346       C  0.02845013  0.77206799  0.35652646    -0.23300
C1347       C  0.03315766  0.75434826  0.38488156     0.13100
C1348       C  0.02920623  0.72133135  0.38439787    -0.12400
N1349       N  0.50649682  0.71179221  0.29956154     0.64800
H1350       H  0.51560405  0.77243837  0.30743036     0.12600
N1351       N  0.04392698  0.76874810  0.41390034     0.61400
H1352       H  0.03246485  0.70828359  0.40637989     0.08800
O1353       O  0.44449984  0.60378663  0.34611345    -0.40100
O1354       O  0.47364897  0.58756652  0.30646646    -0.39200
O1355       O  0.07926877  0.66441358  0.41298137    -0.39200
O1356       O  0.09691645  0.67632769  0.36581195    -0.37000
O1357       O  0.02532120  0.76982934  0.43734915    -0.37900
O1358       O  0.07332069  0.76912586  0.41956691    -0.34000
O1359       O  0.47797212  0.71362530  0.29038914    -0.35400
O1360       O  0.52786588  0.70632127  0.27921679    -0.39700
C1361       C  0.38519253  0.53814698  0.22339271    -0.13400
C1362       C  0.35675089  0.53297116  0.20663207     0.17000
C1363       C  0.32748072  0.02570967  0.22514111     0.03300
C1364       C  0.32958412  0.02446181  0.25837307    -0.11900
C1365       C  0.35785173  0.53309997  0.27443780    -0.03000
C1366       C  0.38589373  0.53917529  0.25690406     0.02500
C1367       C  0.35686624  0.53128496  0.17104578     0.09400
N1368       N  0.29702268  0.02114000  0.21084053     0.65700
H1369       H  0.30900415  0.01728839  0.27158713     0.18600
N1370       N  0.41442892  0.54949906  0.27205319     0.76200
H1371       H  0.40707784  0.54175444  0.21045614     0.10100
C1372       C  0.37102471  0.55502456  0.15203875     0.03800
C1373       C  0.36997690  0.55267169  0.11881333    -0.04900
C1374       C  0.35494504  0.52728168  0.10385940    -0.23300
C1375       C  0.33993214  0.00357715  0.12195900     0.13100
C1376       C  0.34067863  0.00549941  0.15532723    -0.12400
N1377       N  0.38487532  0.58271860  0.16573647     0.64800
H1378       H  0.38038764  0.57125507  0.10455377     0.12600
N1379       N  0.32340021  0.97816369  0.10678491     0.61400
H1380       H  0.33044532  0.98644076  0.16895271     0.08800
O1381       O  0.41972832  0.57887192  0.27254726    -0.40100
O1382       O  0.43791045  0.53078651  0.27308797    -0.39200
O1383       O  0.28535382  0.99365605  0.21061740    -0.39200
O1384       O  0.27854031  0.04471131  0.20843309    -0.37000
O1385       O  0.29532569  0.98257565  0.09710956    -0.37900
O1386       O  0.33848619  0.95377273  0.09787655    -0.34000
O1387       O  0.41472303  0.58526869  0.16568164    -0.35400
O1388       O  0.36808975  0.60753577  0.16790665    -0.39700
C1389       C  0.22662240  0.54191387  0.38169565    -0.13400
C1390       C  0.21042368  0.53787386  0.35283573     0.17000
C1391       C  0.22773361  0.53239106  0.32484236     0.03300
C1392       C  0.26067032  0.53144153  0.32597669    -0.11900
C1393       C  0.27742469  0.53470699  0.35452129    -0.03000
C1394       C  0.25998160  0.53953632  0.38342024     0.02500
C1395       C  0.17544339  0.53626473  0.35270083     0.09400
N1396       N  0.21232279  0.52559860  0.29527408     0.65700
H1397       H  0.27301637  0.52655756  0.30433829     0.18600
N1398       N  0.27457830  0.54079935  0.41458865     0.76200
H1399       H  0.21292348  0.54576294  0.40321136     0.10100
C1400       C  0.15964270  0.00887693  0.36433783     0.03800
C1401       C  0.12666915  0.00718191  0.36034581    -0.04900
C1402       C  0.10780049  0.53307973  0.35043416    -0.23300
C1403       C  0.12461053  0.55996849  0.33787739     0.13100
C1404       C  0.15792032  0.56052564  0.33854478    -0.12400
N1405       N  0.17564451  0.98425944  0.38176935     0.64800
H1406       H  0.11600762  0.98431997  0.36264327     0.12600
N1407       N  0.10972776  0.58647892  0.32267175     0.61400
H1408       H  0.17027095  0.58051275  0.32823957     0.08800
O1409       O  0.25857452  0.53399634  0.43904455    -0.40100
O1410       O  0.30332333  0.54803874  0.41816512    -0.39200
O1411       O  0.21233752  0.54637633  0.27369014    -0.39200
O1412       O  0.20787116  0.49699660  0.28765881    -0.37000
O1413       O  0.11063209  0.61299262  0.33660226    -0.37900
O1414       O  0.10808871  0.58630658  0.29259990    -0.34000
O1415       O  0.16338301  0.97381239  0.40705822    -0.35400
O1416       O  0.20261170  0.97412139  0.37327383    -0.39700
C1417       C  0.37665725  0.86212319  0.21802414    -0.13400
C1418       C  0.34678670  0.85721982  0.20455493     0.17000
C1419       C  0.32059860  0.85230696  0.22475502     0.03300
C1420       C  0.32485217  0.85356927  0.25777230    -0.11900
C1421       C  0.35507834  0.85702765  0.27163256    -0.03000
C1422       C  0.38164212  0.86013140  0.25090446     0.02500
C1423       C  0.34492758  0.85576287  0.16934344     0.09400
N1424       N  0.29049468  0.84235467  0.21268602     0.65700
H1425       H  0.30424676  0.85001272  0.27264130     0.18600
N1426       N  0.41387881  0.85805350  0.26172586     0.76200
H1427       H  0.39685708  0.86515040  0.20237936     0.10100
C1428       C  0.32767026  0.87851661  0.15172720     0.03800
C1429       C  0.32864825  0.87773962  0.11828028    -0.04900
C1430       C  0.34872023  0.85619790  0.10241895    -0.23300
C1431       C  0.36771400  0.83513985  0.12005752     0.13100
C1432       C  0.36491791  0.83426882  0.15318926    -0.12400
N1433       N  0.31192893  0.90426178  0.16752555     0.64800
H1434       H  0.31470941  0.89466283  0.10468987     0.12600
N1435       N  0.39166016  0.81638878  0.10473164     0.61400
H1436       H  0.37962038  0.81778657  0.16655687     0.08800
O1437       O  0.43598839  0.87072255  0.24604387    -0.40100
O1438       O  0.42068539  0.84239915  0.28623525    -0.39200
O1439       O  0.28654730  0.81317535  0.20735087    -0.39200
O1440       O  0.26636456  0.85949791  0.21792658    -0.37000
O1441       O  0.41831301  0.82851192  0.09883839    -0.37900
O1442       O  0.38478817  0.78981279  0.09284717    -0.34000
O1443       O  0.32805035  0.92510824  0.18174123    -0.35400
O1444       O  0.28205990  0.90479278  0.16961286    -0.39700
C1445       C  0.15956550  0.81911281  0.34598728    -0.13400
C1446       C  0.17609994  0.84765118  0.34941691     0.17000
C1447       C  0.15786039  0.87593412  0.35213025     0.03300
C1448       C  0.12469566  0.87512887  0.35133719    -0.11900
C1449       C  0.10831384  0.84648625  0.35108914    -0.03000
C1450       C  0.12632470  0.81797709  0.34794363     0.02500
C1451       C  0.21189545  0.84785877  0.34869031     0.09400
N1452       N  0.17229879  0.90571472  0.35825437     0.65700
H1453       H  0.11171343  0.89737657  0.35168987     0.18600
N1454       N  0.11209637  0.78732368  0.34857994     0.76200
H1455       H  0.17232744  0.79719183  0.34187467     0.10100
C1456       C  0.23114875  0.82489668  0.36456389     0.03800
C1457       C  0.26434320  0.82746121  0.36409793    -0.04900
C1458       C  0.27933224  0.85230434  0.34828835    -0.23300
C1459       C  0.26054711  0.87469135  0.33173658     0.13100
C1460       C  0.22740206  0.87177158  0.33143958    -0.12400
N1461       N  0.21791940  0.79882599  0.38156169     0.64800
H1462       H  0.27855734  0.81005044  0.37675865     0.12600
N1463       N  0.27439955  0.90105817  0.31572777     0.61400
H1464       H  0.21375863  0.88858054  0.31748290     0.08800
O1465       O  0.10901964  0.77243614  0.32264009    -0.40100
O1466       O  0.11489533  0.77138974  0.37380548    -0.39200
O1467       O  0.16926395  0.92758758  0.33796197    -0.39200
O1468       O  0.17895781  0.91267792  0.38672265    -0.37000
O1469       O  0.27442718  0.90140193  0.28566416    -0.37900
O1470       O  0.27642271  0.92707484  0.33049046    -0.34000
O1471       O  0.21908171  0.77162301  0.36895200    -0.35400
O1472       O  0.21554820  0.80082849  0.41144836    -0.39700
C1473       C  0.34521521  0.65991275  0.37225619    -0.13400
C1474       C  0.36044502  0.67414263  0.34628645     0.17000
C1475       C  0.37553656  0.65433938  0.32347705     0.03300
C1476       C  0.37380927  0.62133920  0.32648894    -0.11900
C1477       C  0.35806436  0.60745865  0.35201897    -0.03000
C1478       C  0.34371121  0.62695160  0.37496391     0.02500
C1479       C  0.36028669  0.70940820  0.34417879     0.09400
N1480       N  0.39128920  0.66692607  0.29625575     0.65700
H1481       H  0.38418982  0.60641636  0.30837855     0.18600
N1482       N  0.32583953  0.61349833  0.40009172     0.76200
H1483       H  0.33416580  0.67445313  0.39046936     0.10100
C1484       C  0.33173076  0.72707912  0.34602133     0.03800
C1485       C  0.33243403  0.76012772  0.34701895    -0.04900
C1486       C  0.36102853  0.77674364  0.34672545    -0.23300
C1487       C  0.39004965  0.75915697  0.34451863     0.13100
C1488       C  0.38910707  0.72576245  0.34331331    -0.12400
N1489       N  0.30149832  0.71198735  0.34661152     0.64800
H1490       H  0.31010870  0.77291095  0.34845734     0.12600
N1491       N  0.42051986  0.77421103  0.34324158     0.61400
H1492       H  0.41112456  0.71234599  0.34223609     0.08800
O1493       O  0.29637745  0.60959009  0.39639472    -0.40100
O1494       O  0.34019474  0.60020202  0.42287716    -0.39200
O1495       O  0.42123690  0.66588481  0.29543128    -0.39200
O1496       O  0.37617414  0.66851676  0.27030438    -0.37000
O1497       O  0.42348063  0.80098840  0.33056919    -0.37900
O1498       O  0.44503092  0.76008150  0.35345687    -0.34000
O1499       O  0.28651021  0.71098298  0.37259804    -0.35400
O1500       O  0.28625368  0.70931231  0.32084050    -0.39700
C1501       C  0.36658243  0.86599931  0.86304666     0.46400
H1502       H  0.38094314  0.88056330  0.87902003    -0.02600
C1503       C  0.33347025  0.83129383  0.82613997     0.46500
H1504       H  0.31892407  0.81577330  0.81059152    -0.02600
C1505       C  0.33101658  0.87159749  0.86837547    -0.16300
C1506       C  0.37295260  0.87347745  0.82782403    -0.16100
C1507       C  0.37358317  0.83065698  0.86846329    -0.16400
C1508       C  0.31298104  0.85328505  0.84841276    -0.16400
C1509       C  0.35548500  0.85459733  0.80747461    -0.16000
C1510       C  0.35649369  0.81174325  0.84823926    -0.16300
C1511       C  0.36713066  0.51683832  0.86399147     0.46400
H1512       H  0.38153969  0.00176119  0.87977941    -0.02600
C1513       C  0.33277726  0.55304304  0.82930310     0.46500
H1514       H  0.31771301  0.56891091  0.81442176    -0.02600
C1515       C  0.37442638  0.51206495  0.82855664    -0.16300
C1516       C  0.33191942  0.51023687  0.86897410    -0.16100
C1517       C  0.37264042  0.55202524  0.87130165    -0.16400
C1518       C  0.35625077  0.53153836  0.80945619    -0.16400
C1519       C  0.31322226  0.53060671  0.85192390    -0.16000
C1520       C  0.35486834  0.57158189  0.85224008    -0.16300
C1521       C  0.01864593  0.51450918  0.86724102     0.46400
H1522       H  0.50333907  0.00063126  0.88139172    -0.02600
C1523       C  0.05057947  0.55091419  0.83145127     0.46500
H1524       H  0.06266780  0.56677131  0.81498148    -0.02600
C1525       C  0.05463929  0.51050753  0.87372515    -0.16300
C1526       C  0.01307686  0.50725172  0.83186202    -0.16100
C1527       C  0.00971172  0.54929870  0.87260896    -0.16400
C1528       C  0.07254052  0.53084362  0.85422573    -0.16400
C1529       C  0.03077429  0.52609804  0.81239379    -0.16000
C1530       C  0.02654313  0.56894088  0.85350750    -0.16300
C1531       C  0.01722397  0.86386253  0.86641449     0.46400
H1532       H  0.50237271  0.88003952  0.88214975    -0.02600
C1533       C  0.05053781  0.82709357  0.83125860     0.46500
H1534       H  0.06412032  0.81138496  0.81513199    -0.02600
C1535       C  0.01056036  0.86973503  0.83088313    -0.16300
C1536       C  0.05306730  0.86909708  0.87177137    -0.16100
C1537       C  0.01055483  0.82895454  0.87343044    -0.16400
C1538       C  0.02902202  0.85052757  0.81189712    -0.16400
C1539       C  0.07130166  0.84869464  0.85305260    -0.16000
C1540       C  0.02841559  0.80896205  0.85493728    -0.16300
C1541       C  0.01641260  0.86279848  0.51605006     0.46400
H1542       H  0.50059851  0.87950926  0.00076024    -0.02600
C1543       C  0.05050917  0.82731276  0.55163168     0.46500
H1544       H  0.06467563  0.81083241  0.56637641    -0.02600
C1545       C  0.05194847  0.86672387  0.50900430    -0.16300
C1546       C  0.01158245  0.87061118  0.55149069    -0.16100
C1547       C  0.00833958  0.82776119  0.51158051    -0.16400
C1548       C  0.07055544  0.84740969  0.52822785    -0.16400
C1549       C  0.03059767  0.85225198  0.57087865    -0.16000
C1550       C  0.02659591  0.80869320  0.53052878    -0.16300
C1551       C  0.36400427  0.86600250  0.51319455     0.46400
H1552       H  0.37819426  0.87924154  0.99860385    -0.02600
C1553       C  0.32693022  0.83416658  0.54839901     0.46500
H1554       H  0.30958340  0.82330206  0.56420417    -0.02600
C1555       C  0.32888283  0.87328371  0.50621610    -0.16300
C1556       C  0.36869961  0.83000452  0.50796988    -0.16100
C1557       C  0.37025168  0.87277145  0.54839163    -0.16400
C1558       C  0.30918692  0.85587088  0.52473327    -0.16400
C1559       C  0.34818725  0.81198386  0.52676666    -0.16000
C1560       C  0.35000789  0.85615240  0.56727940    -0.16300
C1561       C  0.01516956  0.51337050  0.51635391     0.46400
H1562       H  0.50075981  0.00095782  0.00051636    -0.02600
C1563       C  0.05005185  0.54807779  0.55173497     0.46500
H1564       H  0.06544729  0.56270625  0.56737575    -0.02600
C1565       C  0.00747468  0.50815438  0.55150136    -0.16300
C1566       C  0.05051218  0.50614915  0.51152126    -0.16100
C1567       C  0.01016501  0.54883388  0.50938224    -0.16400
C1568       C  0.02594199  0.52681852  0.57071920    -0.16400
C1569       C  0.06947424  0.52484534  0.52995114    -0.16000
C1570       C  0.02918747  0.56798819  0.52782895    -0.16300
C1571       C  0.36293493  0.51723730  0.51338988     0.46400
H1572       H  0.37854548  0.00128357  0.99869102    -0.02600
C1573       C  0.32952558  0.55250500  0.54997288     0.46500
H1574       H  0.31637527  0.56765493  0.56681676    -0.02600
C1575       C  0.32718959  0.51211480  0.50761708    -0.16300
C1576       C  0.36937264  0.51017543  0.54845910    -0.16100
C1577       C  0.36988717  0.55246182  0.50831545    -0.16400
C1578       C  0.30878292  0.53082898  0.52805584    -0.16400
C1579       C  0.35183145  0.52918389  0.56804970    -0.16000
C1580       C  0.35134021  0.57152797  0.52704499    -0.16300
O1581       O  0.40474344  0.97020345  0.53194573    -0.72000
O1582       O  0.47592171  0.91335223  0.53466660    -0.73000
O1583       O  0.41150551  0.90603055  0.53254041    -0.61600
O1584       O  0.46867007  0.97700489  0.53341910    -0.70000
O1585       O  0.47520359  0.97685808  0.58537808    -0.69600
O1586       O  0.40295342  0.90739188  0.58421370    -0.60800
O1587       O  0.47404078  0.90596866  0.58642934    -0.73300
O1588       O  0.40476691  0.97784566  0.58390619    -0.72100
Cu1589     Cu  0.44024536  0.94155023  0.53211360     1.04600
Cu1590     Cu  0.43919287  0.94197473  0.58761603     1.04300
C1591       C  0.39404001  0.98482539  0.55606386     0.94200
C1592       C  0.48636425  0.89933853  0.55921905     0.93300
C1593       C  0.39616340  0.89615626  0.55644538     0.85500
C1594       C  0.48261977  0.98791793  0.55780060     0.91800
O1595       O  0.40725618  0.97771066  0.79402056    -0.72000
O1596       O  0.47735722  0.90560732  0.79591898    -0.73000
O1597       O  0.40611255  0.90893528  0.79461509    -0.61600
O1598       O  0.47750434  0.97644187  0.79550074    -0.70000
O1599       O  0.47612153  0.97069060  0.84754730    -0.69600
O1600       O  0.40766411  0.91203973  0.84674077    -0.60800
O1601       O  0.47174475  0.90700164  0.84797552    -0.73300
O1602       O  0.41228861  0.97591232  0.84610824    -0.72100
Cu1603     Cu  0.44216213  0.94210741  0.79243683     1.04600
Cu1604     Cu  0.44186922  0.94148712  0.84813162     1.04300
C1605       C  0.39915848  0.98781876  0.82171876     0.94200
C1606       C  0.48535220  0.89530901  0.82375885     0.93300
C1607       C  0.39621813  0.89958991  0.82183744     0.85500
C1608       C  0.48787085  0.98386992  0.82330897     0.91800
O1609       O  0.08671938  0.90313255  0.97843971    -0.72000
O1610       O  0.08866461  0.97467233  0.90804623    -0.73000
O1611       O  0.08726010  0.97369538  0.97834392    -0.61600
O1612       O  0.08841941  0.90223392  0.90742608    -0.70000
O1613       O  0.03687815  0.90957900  0.90617741    -0.69600
O1614       O  0.03545437  0.96797723  0.97570487    -0.60800
O1615       O  0.03708095  0.97377236  0.91155737    -0.73300
O1616       O  0.03521019  0.90387397  0.97033703    -0.72100
Cu1617     Cu  0.09038259  0.93837744  0.94304101     1.04600
Cu1618     Cu  0.03521293  0.93883349  0.94094927     1.04300
C1619       C  0.05896602  0.89230166  0.98488290     0.94200
C1620       C  0.06152132  0.98555794  0.89880996     0.93300
C1621       C  0.05927471  0.98166249  0.98770964     0.85500
C1622       C  0.06102633  0.89479713  0.89594881     0.91800
O1623       O  0.40692477  0.53489336  0.91073958    -0.72000
O1624       O  0.47411132  0.53432653  0.97063982    -0.73000
O1625       O  0.41018535  0.53473789  0.97459975    -0.61600
O1626       O  0.47050822  0.53319683  0.90698730    -0.70000
O1627       O  0.47624115  0.58501321  0.90676147    -0.69600
O1628       O  0.40339506  0.58650068  0.97541709    -0.60800
O1629       O  0.47364999  0.58591653  0.97785243    -0.73300
O1630       O  0.40622882  0.58676202  0.90487013    -0.72100
Cu1631     Cu  0.44036621  0.53326673  0.94083530     1.04600
Cu1632     Cu  0.43992140  0.58868325  0.94126968     1.04300
C1633       C  0.39619714  0.55923272  0.89675566     0.94200
C1634       C  0.48508786  0.55847561  0.98458384     0.93300
C1635       C  0.39574697  0.55880122  0.98547114     0.85500
C1636       C  0.48422239  0.55738712  0.89612494     0.91800
O1637       O  0.29284457  0.97749817  0.97237287    -0.72000
O1638       O  0.29426415  0.90563545  0.90114438    -0.73000
O1639       O  0.29279763  0.90623450  0.97223845    -0.61600
O1640       O  0.29509034  0.97637101  0.90106551    -0.70000
O1641       O  0.34691495  0.97214642  0.90589350    -0.69600
O1642       O  0.34487901  0.90980159  0.97075310    -0.60800
O1643       O  0.34604626  0.90827947  0.90686123    -0.73300
O1644       O  0.34469581  0.97366032  0.97027810    -0.72100
Cu1645     Cu  0.29110187  0.94146675  0.93665282     1.04600
Cu1646     Cu  0.34655033  0.94095161  0.93845819     1.04300
C1647       C  0.32029053  0.98649014  0.98246488     0.94200
C1648       C  0.32226023  0.89606866  0.89320207     0.93300
C1649       C  0.32036346  0.89718691  0.98215435     0.85500
C1650       C  0.32313480  0.98515491  0.89288455     0.91800
O1651       O  0.47574783  0.79446349  0.97595364    -0.72000
O1652       O  0.40338889  0.79524104  0.90621608    -0.73000
O1653       O  0.47366133  0.79565167  0.90499428    -0.61600
O1654       O  0.40554897  0.79376270  0.97770573    -0.70000
O1655       O  0.40214929  0.84458674  0.96805219    -0.69600
O1656       O  0.47594305  0.84693697  0.91446514    -0.60800
O1657       O  0.41239836  0.84646606  0.90459542    -0.73300
O1658       O  0.46609173  0.84572106  0.97855236    -0.72100
Cu1659     Cu  0.43960490  0.79207374  0.94116942     1.04600
Cu1660     Cu  0.43909561  0.84696422  0.94153094     1.04300
C1661       C  0.48178550  0.82182894  0.98807079     0.94200
C1662       C  0.39756799  0.82269451  0.89401207     0.93300
C1663       C  0.48580975  0.82291646  0.89913567     0.85500
C1664       C  0.39234329  0.82074902  0.98333497     0.91800
C1665       C  0.15703679  0.53193609  0.00588537    -0.13400
C1666       C  0.17170221  0.51929877  0.53299972     0.17000
C1667       C  0.15321131  0.50746356  0.55817143     0.03300
C1668       C  0.12003577  0.50909325  0.55625969    -0.11900
C1669       C  0.10472047  0.52265490  0.52990380    -0.03000
C1670       C  0.12392734  0.53410937  0.00401258     0.02500
C1671       C  0.20663038  0.52152456  0.53466221     0.09400
N1672       N  0.16753650  0.49437797  0.58610935     0.65700
H1673       H  0.10632095  0.49946841  0.57546010     0.18600
N1674       N  0.11048518  0.55008946  0.97726704     0.76200
H1675       H  0.17124161  0.54134244  0.98661100     0.10100
C1676       C  0.22767398  0.99207187  0.52811568     0.03800
C1677       C  0.26054754  0.99634290  0.52891728    -0.04900
C1678       C  0.27340595  0.52901072  0.53147948    -0.23300
C1679       C  0.25312684  0.55544287  0.53842085     0.13100
C1680       C  0.22017759  0.55121487  0.53979642    -0.12400
N1681       N  0.21400887  0.96476780  0.02732050     0.64800
H1682       H  0.27418393  0.97780219  0.02827346     0.12600
N1683       N  0.26458952  0.58669362  0.54466300     0.61400
H1684       H  0.20491607  0.57151267  0.54451255     0.08800
O1685       O  0.11735240  0.57892197  0.97373279    -0.40100
O1686       O  0.10334130  0.53403998  0.95289617    -0.39200
O1687       O  0.16927421  0.51129243  0.61089221    -0.39200
O1688       O  0.16920256  0.46463200  0.58881064    -0.37000
O1689       O  0.25860859  0.60799598  0.52442997    -0.37900
O1690       O  0.26755782  0.59507035  0.57341910    -0.34000
O1691       O  0.20689763  0.95508976  0.99974837    -0.35400
O1692       O  0.22100829  0.94474892  0.04840960    -0.39700
C1693       C  0.33033165  0.65504965  0.00564740    -0.13400
C1694       C  0.35024386  0.67351493  0.52511400     0.17000
C1695       C  0.37135841  0.65694020  0.54504804     0.03300
C1696       C  0.37136496  0.62368108  0.54514161    -0.11900
C1697       C  0.35083156  0.60660848  0.52507189    -0.03000
C1698       C  0.33088287  0.62173073  0.00462504     0.02500
C1699       C  0.34874900  0.70858012  0.52505735     0.09400
N1700       N  0.39340953  0.67380594  0.56457819     0.65700
H1701       H  0.38765010  0.61109572  0.56073118     0.18600
N1702       N  0.31048390  0.60606143  0.98179319     0.76200
H1703       H  0.31434654  0.66817774  0.99021613     0.10100
C1704       C  0.35711740  0.72442362  0.99895345     0.03800
C1705       C  0.35294752  0.75747638  0.99839443    -0.04900
C1706       C  0.34496618  0.77600182  0.52576043    -0.23300
C1707       C  0.33285991  0.75757982  0.55155332     0.13100
C1708       C  0.33555907  0.72445294  0.55106860    -0.12400
N1709       N  0.37140158  0.70859769  0.97235609     0.64800
H1710       H  0.35670791  0.76950383  0.97613099     0.12600
N1711       N  0.31407493  0.77093716  0.57649105     0.61400
H1712       H  0.32632143  0.71089031  0.57087174     0.08800
O1713       O  0.29381105  0.62229212  0.96271503    -0.40100
O1714       O  0.30771816  0.57636098  0.98102558    -0.39200
O1715       O  0.38555032  0.68167748  0.59251130    -0.39200
O1716       O  0.41705293  0.68683447  0.55178497    -0.37000
O1717       O  0.28421300  0.77158908  0.57351762    -0.37900
O1718       O  0.32637848  0.77696068  0.60323609    -0.34000
O1719       O  0.35440240  0.70026527  0.94903987    -0.35400
O1720       O  0.39921700  0.69753025  0.97499894    -0.39700
C1721       C  0.03076753  0.65574160  0.50160489    -0.13400
C1722       C  0.03005656  0.67124112  0.53111661     0.17000
C1723       C  0.02937877  0.65269742  0.55904517     0.03300
C1724       C  0.02910735  0.61947620  0.55690365    -0.11900
C1725       C  0.02947852  0.60368017  0.52737022    -0.03000
C1726       C  0.03108120  0.62251010  0.49926500     0.02500
C1727       C  0.02962797  0.70665122  0.53179310     0.09400
N1728       N  0.53075416  0.67041274  0.59016543     0.65700
H1729       H  0.52850214  0.60952718  0.57835513     0.18600
N1730       N  0.03635568  0.61001467  0.96754107     0.76200
H1731       H  0.03349201  0.67047632  0.97963256     0.10100
C1732       C  0.05423720  0.72449724  0.51772446     0.03800
C1733       C  0.05232388  0.75762774  0.51710863    -0.04900
C1734       C  0.02615813  0.77365452  0.52992166    -0.23300
C1735       C  0.50263440  0.76019361  0.54504959     0.13100
C1736       C  0.50472498  0.72686132  0.54568357    -0.12400
N1737       N  0.08195492  0.70954469  0.50490125     0.64800
H1738       H  0.07161301  0.77100156  0.50675014     0.12600
N1739       N  0.47630354  0.77589646  0.55984689     0.61400
H1740       H  0.48560720  0.71347184  0.55626913     0.08800
O1741       O  0.01595038  0.61683042  0.94657280    -0.40100
O1742       O  0.06417343  0.60422778  0.95823259    -0.39200
O1743       O  0.50544390  0.67134368  0.60619028    -0.39200
O1744       O  0.55701630  0.67255765  0.60453332    -0.37000
O1745       O  0.47927657  0.78694493  0.58764694    -0.37900
O1746       O  0.45224995  0.78337992  0.54345831    -0.34000
O1747       O  0.08474427  0.70737281  0.47503614    -0.35400
O1748       O  0.10659188  0.70788248  0.52200941    -0.39700
C1749       C  0.22449830  0.83369967  0.99958680    -0.13400
C1750       C  0.20762590  0.85031507  0.52202568     0.17000
C1751       C  0.22304284  0.86966485  0.54514778     0.03300
C1752       C  0.25635826  0.87140539  0.54507274    -0.11900
C1753       C  0.27433134  0.85544876  0.52207447    -0.03000
C1754       C  0.25753612  0.83629391  0.99926640     0.02500
C1755       C  0.17273492  0.84535837  0.52233485     0.09400
N1756       N  0.20547910  0.88841865  0.56804695     0.65700
H1757       H  0.26845107  0.88571072  0.56276332     0.18600
N1758       N  0.27521581  0.81887372  0.97597891     0.76200
H1759       H  0.21326628  0.81809090  0.98249691     0.10100
C1760       C  0.15207995  0.84792622  0.99497669     0.03800
C1761       C  0.11912817  0.84592448  0.99746043    -0.04900
C1762       C  0.10582674  0.84453185  0.52684889    -0.23500
C1763       C  0.12503672  0.83974080  0.55434667     0.13100
C1764       C  0.15800960  0.83846517  0.55134124    -0.12400
N1765       N  0.16522651  0.85473141  0.96446066     0.64800
H1766       H  0.10505180  0.84667665  0.97584437     0.12600
N1767       N  0.11232219  0.83867303  0.58588866     0.61400
H1768       H  0.17230942  0.83475943  0.57254936     0.08800
O1769       O  0.27982707  0.83113619  0.94900222    -0.40100
O1770       O  0.27860746  0.78929796  0.97922948    -0.39200
O1771       O  0.21856851  0.89707731  0.59371687    -0.39200
O1772       O  0.17913772  0.90082197  0.56049443    -0.37000
O1773       O  0.11222808  0.81243925  0.60032924    -0.37900
O1774       O  0.11217677  0.86383313  0.60221513    -0.34000
O1775       O  0.16428565  0.83351601  0.94325617    -0.35400
O1776       O  0.16740529  0.88332452  0.95600193    -0.39700
C1777       C  0.00918786  0.83929638  0.72381280    -0.13400
C1778       C  0.03526553  0.85350788  0.70914224     0.17000
C1779       C  0.05951935  0.86626817  0.72829838     0.03300
C1780       C  0.05631443  0.86627487  0.76169240    -0.11900
C1781       C  0.02997074  0.85206215  0.77644033    -0.03000
C1782       C  0.00710344  0.83667805  0.75711732     0.02500
C1783       C  0.03687124  0.85365712  0.67373350     0.09400
N1784       N  0.08852090  0.87666215  0.71418858     0.65700
H1785       H  0.07506854  0.87624648  0.77626038     0.18600
N1786       N  0.98354633  0.81591315  0.77029251     0.76200
H1787       H  0.99081595  0.82897467  0.70903066     0.10100
C1788       C  0.03638483  0.82509593  0.65630833     0.03800
C1789       C  0.03368489  0.82568257  0.62318393    -0.04900
C1790       C  0.03285799  0.85431604  0.60631309    -0.23300
C1791       C  0.03656893  0.88309581  0.62356047     0.13100
C1792       C  0.03734216  0.88248494  0.65708529    -0.12400
N1793       N  0.03996610  0.79516492  0.67178881     0.64800
H1794       H  0.03252366  0.80327986  0.61059841     0.12600
N1795       N  0.54104556  0.91676333  0.60984807     0.61400
H1796       H  0.53632307  0.90775057  0.67192161     0.08800
O1797       O  0.97241203  0.79368019  0.75352729    -0.40100
O1798       O  0.97604613  0.81735831  0.79930974    -0.39200
O1799       O  0.09248334  0.90569443  0.70834270    -0.39200
O1800       O  0.10759202  0.85644330  0.70269457    -0.37000
O1801       O  0.56897567  0.92297176  0.60115291    -0.37900
O1802       O  0.52224045  0.93959558  0.61506232    -0.34000
O1803       O  0.01578426  0.77825318  0.67615648    -0.35400
O1804       O  0.06713318  0.78235441  0.67272061    -0.39700
C1805       C  0.49962341  0.54133475  0.65626562    -0.13400
C1806       C  0.02634842  0.52709522  0.67348337     0.17000
C1807       C  0.05134139  0.51316570  0.65571074     0.03300
C1808       C  0.04987685  0.51253948  0.62250468    -0.11900
C1809       C  0.02455873  0.52622632  0.60598035    -0.03000
C1810       C  0.49883466  0.54180240  0.62271022     0.02500
C1811       C  0.02693328  0.52703948  0.70911562     0.09400
N1812       N  0.07929834  0.50087144  0.67073801     0.65700
H1813       H  0.06887661  0.50126387  0.60959654     0.18600
N1814       N  0.47203516  0.55535702  0.60658542     0.76200
H1815       H  0.47920291  0.54988546  0.66946815     0.10100
C1816       C  0.02385319  0.55516446  0.72725038     0.03800
C1817       C  0.02536615  0.55396828  0.76056203    -0.04900
C1818       C  0.02998603  0.52529106  0.77678689    -0.23300
C1819       C  0.03405659  0.99713938  0.75751898     0.13100
C1820       C  0.03206183  0.99858350  0.72412036    -0.12400
N1821       N  0.02081592  0.58546695  0.71240408     0.64800
H1822       H  0.02346205  0.57595593  0.77378068     0.12600
N1823       N  0.04413698  0.96794719  0.77180153     0.61400
H1824       H  0.03555762  0.97703156  0.71040713     0.08800
O1825       O  0.44778871  0.53877753  0.60118648    -0.40100
O1826       O  0.47417615  0.58245955  0.59414442    -0.39200
O1827       O  0.08325096  0.47120456  0.67205699    -0.39200
O1828       O  0.10324823  0.51855348  0.67301751    -0.37000
O1829       O  0.07325233  0.96418062  0.77801481    -0.37900
O1830       O  0.02712379  0.94365071  0.76841917    -0.34000
O1831       O  0.49113029  0.59974440  0.71280995    -0.35400
O1832       O  0.04551414  0.60168590  0.70818967    -0.39700
C1833       C  0.49469965  0.65449216  0.84413237    -0.13400
C1834       C  0.02111878  0.67108597  0.85565778     0.17000
C1835       C  0.04705762  0.65425248  0.86927731     0.03300
C1836       C  0.04734736  0.62111023  0.86939131    -0.11900
C1837       C  0.02336607  0.60392573  0.85462526    -0.03000
C1838       C  0.49586112  0.62113371  0.84280915     0.02500
C1839       C  0.02037820  0.70663292  0.85565940     0.09400
N1840       N  0.07395481  0.67033046  0.88219677     0.65700
H1841       H  0.06662176  0.60853566  0.88101018     0.18600
N1842       N  0.46960974  0.60407161  0.82990268     0.76200
H1843       H  0.47365758  0.66674748  0.83562603     0.10100
C1844       C  0.01481563  0.72456395  0.82769978     0.03800
C1845       C  0.01824477  0.75758356  0.82825789    -0.04900
C1846       C  0.02633371  0.77374068  0.85625153    -0.23300
C1847       C  0.03142655  0.75600549  0.88448770     0.13100
C1848       C  0.02758212  0.72299868  0.88398052    -0.12400
N1849       N  0.50455029  0.71094717  0.79927450     0.64800
H1850       H  0.51323697  0.77159526  0.80747108     0.12600
N1851       N  0.04251123  0.77043043  0.91336776     0.61400
H1852       H  0.03126479  0.70992123  0.90588396     0.08800
O1853       O  0.44460136  0.60102276  0.84606009    -0.40100
O1854       O  0.47340736  0.58754989  0.80514360    -0.39200
O1855       O  0.08039608  0.66745118  0.91144277    -0.39200
O1856       O  0.09480588  0.68089985  0.86355681    -0.37000
O1857       O  0.02422129  0.77147453  0.93707097    -0.37900
O1858       O  0.07198505  0.77118788  0.91854945    -0.34000
O1859       O  0.47585356  0.71272884  0.79065119    -0.35400
O1860       O  0.52556254  0.70591251  0.77845312    -0.39700
C1861       C  0.38466719  0.53614260  0.72243659    -0.13400
C1862       C  0.35574650  0.53349203  0.70589328     0.17000
C1863       C  0.32869141  0.02676769  0.72426106     0.03300
C1864       C  0.33030065  0.02632202  0.75734436    -0.11900
C1865       C  0.35759135  0.53254409  0.77378005    -0.03000
C1866       C  0.38578282  0.53681702  0.75594598     0.02500
C1867       C  0.35549545  0.53241999  0.67025337     0.09400
N1868       N  0.29850657  0.02232989  0.70937451     0.65700
H1869       H  0.30728472  0.02045626  0.77113941     0.18600
N1870       N  0.41476774  0.54627675  0.77076010     0.76200
H1871       H  0.40664718  0.53831208  0.70933393     0.10100
C1872       C  0.37170383  0.55505932  0.65147053     0.03800
C1873       C  0.37081621  0.55293693  0.61821989    -0.04900
C1874       C  0.35410655  0.52879862  0.60302337    -0.23300
C1875       C  0.34084155  0.00422408  0.62127222     0.13100
C1876       C  0.34228143  0.00559956  0.65464626    -0.12400
N1877       N  0.38788607  0.58134810  0.66538582     0.64800
H1878       H  0.38281349  0.57068558  0.60412247     0.12600
N1879       N  0.32392981  0.97909498  0.60603312     0.61400
H1880       H  0.33208783  0.98646251  0.66818583     0.08800
O1881       O  0.41973188  0.57560640  0.77332759    -0.40100
O1882       O  0.43846006  0.52784290  0.76949462    -0.39200
O1883       O  0.28678664  0.99486784  0.70896654    -0.39200
O1884       O  0.28010773  0.04593293  0.70671182    -0.37000
O1885       O  0.29564560  0.98370766  0.59709834    -0.37900
O1886       O  0.33875918  0.95483592  0.59635666    -0.34000
O1887       O  0.41785352  0.58087802  0.66608104    -0.35400
O1888       O  0.37369899  0.60778200  0.66660310    -0.39700
C1889       C  0.22747937  0.53936039  0.88219149    -0.13400
C1890       C  0.21116105  0.53496077  0.85346958     0.17000
C1891       C  0.22827052  0.52882486  0.82549279     0.03300
C1892       C  0.26118559  0.52769014  0.82647189    -0.11900
C1893       C  0.27808085  0.53221256  0.85472194    -0.03000
C1894       C  0.26083339  0.53723495  0.88370532     0.02500
C1895       C  0.17620835  0.53397031  0.85348063     0.09400
N1896       N  0.21265090  0.52177638  0.79611124     0.65700
H1897       H  0.27346082  0.52142599  0.80501743     0.18600
N1898       N  0.27558940  0.53857102  0.91479752     0.76200
H1899       H  0.21390576  0.54342899  0.90375376     0.10100
C1900       C  0.15933906  0.00780603  0.86505547     0.03800
C1901       C  0.12639479  0.00625143  0.86083421    -0.04900
C1902       C  0.10855054  0.53310395  0.85268938    -0.23300
C1903       C  0.12589906  0.56032451  0.84192239     0.13100
C1904       C  0.15919295  0.55956396  0.84123307    -0.12400
N1905       N  0.17502722  0.98408559  0.88398614     0.64800
H1906       H  0.11556426  0.98348938  0.86336052     0.12600
N1907       N  0.11149957  0.58941861  0.83186437     0.61400
H1908       H  0.17195697  0.57991847  0.83224769     0.08800
O1909       O  0.25992724  0.53100259  0.93924548    -0.40100
O1910       O  0.30428756  0.54603842  0.91825192    -0.39200
O1911       O  0.21235819  0.54245450  0.77442817    -0.39200
O1912       O  0.20840824  0.49310265  0.78865861    -0.37000
O1913       O  0.11500685  0.61327531  0.84968575    -0.37900
O1914       O  0.10900428  0.59425404  0.80226262    -0.34000
O1915       O  0.16251345  0.97530392  0.90979339    -0.35400
O1916       O  0.20241011  0.97399659  0.87685186    -0.39700
C1917       C  0.37638914  0.86266671  0.71843211    -0.13400
C1918       C  0.34679015  0.85766462  0.70447984     0.17000
C1919       C  0.32038046  0.85222677  0.72426444     0.03300
C1920       C  0.32415481  0.85321874  0.75737376    -0.11900
C1921       C  0.35415581  0.85678302  0.77171853    -0.03000
C1922       C  0.38098583  0.86017046  0.75131446     0.02500
C1923       C  0.34551284  0.85665699  0.66920708     0.09400
N1924       N  0.29057556  0.84202407  0.71166216     0.65700
H1925       H  0.30335705  0.84941773  0.77189995     0.18600
N1926       N  0.41315029  0.85793571  0.76234673     0.76200
H1927       H  0.39675433  0.86612923  0.70310407     0.10100
C1928       C  0.32800508  0.87925022  0.65164104     0.03800
C1929       C  0.32911813  0.87864658  0.61818949    -0.04900
C1930       C  0.34984201  0.85772170  0.60232115    -0.23300
C1931       C  0.36967741  0.83747045  0.61998504     0.13100
C1932       C  0.36647621  0.83609112  0.65305571    -0.12400
N1933       N  0.31237784  0.90501614  0.66751154     0.64800
H1934       H  0.31488332  0.89534500  0.60462334     0.12600
N1935       N  0.39496843  0.82038323  0.60485984     0.61400
H1936       H  0.38163660  0.82001423  0.66640833     0.08800
O1937       O  0.43542577  0.87052111  0.74682746    -0.40100
O1938       O  0.41968148  0.84277529  0.78722343    -0.39200
O1939       O  0.28722304  0.81291740  0.70554062    -0.39200
O1940       O  0.26608244  0.85858750  0.71707818    -0.37000
O1941       O  0.42159106  0.83351333  0.60156047    -0.37900
O1942       O  0.38951332  0.79467425  0.59052359    -0.34000
O1943       O  0.32867061  0.92602493  0.68127624    -0.35400
O1944       O  0.28260151  0.90513366  0.67061328    -0.39700
C1945       C  0.15821276  0.82102621  0.84634400    -0.13400
C1946       C  0.17449201  0.84967113  0.84999856     0.17000
C1947       C  0.15608162  0.87782791  0.85245520     0.03300
C1948       C  0.12293312  0.87677318  0.85163127    -0.11900
C1949       C  0.10677709  0.84799221  0.85137197    -0.03000
C1950       C  0.12497868  0.81963586  0.84798848     0.02500
C1951       C  0.21024965  0.84997250  0.84960142     0.09400
N1952       N  0.17029777  0.90763485  0.85883897     0.65700
H1953       H  0.10977921  0.89892578  0.85201380     0.18600
N1954       N  0.11091447  0.78889650  0.84752515     0.76200
H1955       H  0.17121970  0.79924137  0.84220640     0.10100
C1956       C  0.22925169  0.82719676  0.86599013     0.03800
C1957       C  0.26245911  0.82907573  0.86508245    -0.04900
C1958       C  0.27773211  0.85313088  0.84840491    -0.23300
C1959       C  0.25918540  0.87558245  0.83160767     0.13100
C1960       C  0.22595127  0.87338099  0.83184400    -0.12400
N1961       N  0.21572192  0.80220377  0.88430200     0.64800
H1962       H  0.27648654  0.81173924  0.87806554     0.12600
N1963       N  0.27338914  0.90116106  0.81464143     0.61400
H1964       H  0.21240363  0.89020675  0.81779732     0.08800
O1965       O  0.10815556  0.77485871  0.82107368    -0.40100
O1966       O  0.11352737  0.77214833  0.87223457    -0.39200
O1967       O  0.16746932  0.92953974  0.83854835    -0.39200
O1968       O  0.17607429  0.91459848  0.88749340    -0.37000
O1969       O  0.27299868  0.90062328  0.78457858    -0.37900
O1970       O  0.27620987  0.92753941  0.82859156    -0.34000
O1971       O  0.21603328  0.77449940  0.87282803    -0.35400
O1972       O  0.21446546  0.80541185  0.91414641    -0.39700
C1973       C  0.34327952  0.65879210  0.87159990    -0.13400
C1974       C  0.35782546  0.67346749  0.84548534     0.17000
C1975       C  0.37296882  0.65399207  0.82237928     0.03300
C1976       C  0.37238533  0.62089483  0.82551637    -0.11900
C1977       C  0.35746962  0.60657322  0.85136509    -0.03000
C1978       C  0.34272111  0.62576147  0.87432540     0.02500
C1979       C  0.35756679  0.70885627  0.84383342     0.09400
N1980       N  0.38752529  0.66700352  0.79468656     0.65700
H1981       H  0.38293697  0.60625686  0.80720725     0.18600
N1982       N  0.32538676  0.61183205  0.89955045     0.76200
H1983       H  0.33217961  0.67302267  0.89002929     0.10100
C1984       C  0.32913825  0.72668100  0.84654873     0.03800
C1985       C  0.33001636  0.75978480  0.84766937    -0.04900
C1986       C  0.35867832  0.77629409  0.84672214    -0.23300
C1987       C  0.38755343  0.75854527  0.84390601     0.13100
C1988       C  0.38640780  0.72515610  0.84248375    -0.12400
N1989       N  0.29885220  0.71173478  0.84769035     0.64800
H1990       H  0.30780512  0.77272063  0.84969785     0.12600
N1991       N  0.41811397  0.77341115  0.84229510     0.61400
H1992       H  0.40834542  0.71166894  0.84085666     0.08800
O1993       O  0.29603114  0.60713335  0.89597753    -0.40100
O1994       O  0.34027664  0.59848778  0.92195904    -0.39200
O1995       O  0.41743533  0.66663371  0.79281327    -0.39200
O1996       O  0.37146328  0.66854590  0.76930634    -0.37000
O1997       O  0.42109193  0.80027423  0.82982579    -0.37900
O1998       O  0.44270083  0.75897109  0.85187025    -0.34000
O1999       O  0.28459329  0.71029318  0.87406502    -0.35400
O2000       O  0.28284494  0.70977706  0.82232014    -0.39700
C2001       C  0.86659640  0.36326651  0.36308960     0.46400
H2002       H  0.88078739  0.37799154  0.37905633    -0.02600
C2003       C  0.83368729  0.32823679  0.32631416     0.46500
H2004       H  0.81920505  0.31256734  0.31085314    -0.02600
C2005       C  0.83101430  0.36898966  0.36815826    -0.16300
C2006       C  0.87326395  0.37026135  0.32780552    -0.16100
C2007       C  0.87357671  0.32800606  0.36884568    -0.16400
C2008       C  0.81314191  0.35045315  0.34826434    -0.16400
C2009       C  0.85574436  0.35134815  0.30753450    -0.16000
C2010       C  0.85662172  0.30893005  0.34869254    -0.16300
C2011       C  0.86718818  0.01460798  0.36482413     0.46400
H2012       H  0.88086602  0.49877756  0.37983938    -0.02600
C2013       C  0.83381940  0.05112033  0.32952754     0.46500
H2014       H  0.81955072  0.06727985  0.31419783    -0.02600
C2015       C  0.87485391  0.00960473  0.32957734    -0.16300
C2016       C  0.83164998  0.00846532  0.36919970    -0.16100
C2017       C  0.87288173  0.04967725  0.37224675    -0.16400
C2018       C  0.85701117  0.02892018  0.31026390    -0.16400
C2019       C  0.81340475  0.02928965  0.35183746    -0.16000
C2020       C  0.85564120  0.06932667  0.35291756    -0.16300
C2021       C  0.51836157  0.01747785  0.36604585     0.46400
H2022       H  0.00375221  0.49777508  0.38111560    -0.02600
C2023       C  0.54993649  0.05418694  0.33021835     0.46500
H2024       H  0.56186917  0.07023072  0.31380925    -0.02600
C2025       C  0.55440983  0.01389806  0.37252627    -0.16300
C2026       C  0.51285434  0.01008419  0.33068365    -0.16100
C2027       C  0.50916483  0.05215762  0.37142646    -0.16400
C2028       C  0.57214909  0.03431529  0.35291828    -0.16400
C2029       C  0.53029999  0.02917426  0.31119367    -0.16000
C2030       C  0.52575641  0.07194345  0.35232916    -0.16300
C2031       C  0.51779315  0.36629241  0.36706358     0.46400
H2032       H  0.00277860  0.37803848  0.38234418    -0.02600
C2033       C  0.55083027  0.32904391  0.33220395     0.46500
H2034       H  0.56425375  0.31316976  0.31612805    -0.02600
C2035       C  0.51131022  0.37210051  0.33151042    -0.16300
C2036       C  0.55372374  0.37111605  0.37257293    -0.16100
C2037       C  0.51067681  0.33148656  0.37414132    -0.16400
C2038       C  0.52964931  0.35263762  0.31270311    -0.16400
C2039       C  0.57176644  0.35032207  0.35407610    -0.16000
C2040       C  0.52845302  0.31128738  0.35584960    -0.16300
C2041       C  0.51535998  0.36513069  0.01696226     0.46400
H2042       H  0.00056456  0.37773530  0.50129578    -0.02600
C2043       C  0.54917396  0.32943499  0.05259314     0.46500
H2044       H  0.56342393  0.31293586  0.06730086    -0.02600
C2045       C  0.55096482  0.36906697  0.01018045    -0.16300
C2046       C  0.51038443  0.37279528  0.05241325    -0.16100
C2047       C  0.50717108  0.33013229  0.01232846    -0.16400
C2048       C  0.56932934  0.34963740  0.02944421    -0.16400
C2049       C  0.52919042  0.35427002  0.07183872    -0.16000
C2050       C  0.52533793  0.31097056  0.03127051    -0.16300
C2051       C  0.86280815  0.36366110  0.01331638     0.46400
H2052       H  0.87834623  0.37704420  0.49853098    -0.02600
C2053       C  0.82582368  0.33151902  0.04833509     0.46500
H2054       H  0.80856789  0.32054958  0.06416494    -0.02600
C2055       C  0.82768871  0.37121933  0.00663441    -0.16300
C2056       C  0.86736146  0.32768802  0.00770436    -0.16100
C2057       C  0.86925626  0.37004214  0.04855193    -0.16400
C2058       C  0.80803845  0.35363000  0.02503317    -0.16400
C2059       C  0.84685843  0.30948479  0.02630267    -0.16000
C2060       C  0.84909372  0.35322213  0.06735194    -0.16300
C2061       C  0.51547312  0.01599869  0.01572863     0.46400
H2062       H  0.00049944  0.49820905  0.50123764    -0.02600
C2063       C  0.55017263  0.05064924  0.05137000     0.46500
H2064       H  0.56545433  0.06529685  0.06711752    -0.02600
C2065       C  0.50745435  0.01087449  0.05081767    -0.16300
C2066       C  0.55085560  0.00852189  0.01138469    -0.16100
C2067       C  0.51078876  0.05148617  0.00862428    -0.16400
C2068       C  0.52572693  0.02973632  0.07007461    -0.16400
C2069       C  0.56964134  0.02699479  0.03030161    -0.16000
C2070       C  0.52980413  0.07050862  0.02712940    -0.16300
C2071       C  0.86346403  0.01452098  0.01411619     0.46400
H2072       H  0.87815613  0.49825000  0.49878114    -0.02600
C2073       C  0.83014410  0.04994842  0.05059626     0.46500
H2074       H  0.81695397  0.06507769  0.06741203    -0.02600
C2075       C  0.82771263  0.00948408  0.00824026    -0.16300
C2076       C  0.86962979  0.00724002  0.04920464    -0.16100
C2077       C  0.87062144  0.04974719  0.00915786    -0.16400
C2078       C  0.80934387  0.02855778  0.02843878    -0.16400
C2079       C  0.85205056  0.02629182  0.06880507    -0.16000
C2080       C  0.85223339  0.06890933  0.02787817    -0.16300
O2081       O  0.90463326  0.46757713  0.03236672    -0.72000
O2082       O  0.97489261  0.40978700  0.03496808    -0.73000
O2083       O  0.91047690  0.40336996  0.03281385    -0.61600
O2084       O  0.96871392  0.47355289  0.03364465    -0.70000
O2085       O  0.97492253  0.47362507  0.08563218    -0.69600
O2086       O  0.90221071  0.40434252  0.08453716    -0.60800
O2087       O  0.97314928  0.40260115  0.08676366    -0.73300
O2088       O  0.90438399  0.47474255  0.08439666    -0.72100
Cu2089     Cu  0.93971330  0.43848143  0.03242511     1.04600
Cu2090     Cu  0.93863651  0.43880029  0.08796156     1.04300
C2091       C  0.89379791  0.48195054  0.05656974     0.94200
C2092       C  0.98526940  0.39575729  0.05953292     0.93300
C2093       C  0.89523296  0.39334419  0.05671123     0.85500
C2094       C  0.98258977  0.48454288  0.05803723     0.91800
O2095       O  0.90718221  0.47474632  0.29417734    -0.72000
O2096       O  0.97726969  0.40267510  0.29584383    -0.73000
O2097       O  0.90598475  0.40599079  0.29448556    -0.61600
O2098       O  0.97736009  0.47343800  0.29556600    -0.70000
O2099       O  0.97467168  0.46929930  0.34770560    -0.69600
O2100       O  0.90909481  0.40768401  0.34661435    -0.60800
O2101       O  0.97311946  0.40558700  0.34796878    -0.73300
O2102       O  0.91069418  0.47153804  0.34633174    -0.72100
Cu2103     Cu  0.94204822  0.43915361  0.29244570     1.04600
Cu2104     Cu  0.94180012  0.43859070  0.34819345     1.04300
C2105       C  0.89827792  0.48407246  0.32190902     0.94200
C2106       C  0.98609085  0.39325054  0.32374467     0.93300
C2107       C  0.89686322  0.39597909  0.32173521     0.85500
C2108       C  0.98712618  0.48162564  0.32336844     0.91800
O2109       O  0.58696582  0.40577860  0.47883852    -0.72000
O2110       O  0.58918439  0.47735122  0.40808298    -0.73000
O2111       O  0.58721445  0.47637858  0.47852629    -0.61600
O2112       O  0.58920250  0.40474906  0.40773814    -0.70000
O2113       O  0.53757573  0.41125662  0.40725624    -0.69600
O2114       O  0.53535798  0.47147612  0.47499651    -0.60800
O2115       O  0.53757614  0.47548020  0.41073925    -0.73300
O2116       O  0.53538530  0.40723992  0.47141272    -0.72100
Cu2117     Cu  0.59075522  0.44102237  0.44329261     1.04600
Cu2118     Cu  0.53554916  0.44139214  0.44108381     1.04300
C2119       C  0.55913964  0.39534952  0.48570028     0.94200
C2120       C  0.56198143  0.48771817  0.39836976     0.93300
C2121       C  0.55917954  0.48477623  0.48741238     0.85500
C2122       C  0.56177331  0.39680747  0.39672632     0.91800
O2123       O  0.90601270  0.03270995  0.41281365    -0.72000
O2124       O  0.97598186  0.03291188  0.46976666    -0.73000
O2125       O  0.91193358  0.03274083  0.47665185    -0.61600
O2126       O  0.96956423  0.03168718  0.40622608    -0.70000
O2127       O  0.97670898  0.08330340  0.40758804    -0.69600
O2128       O  0.90308018  0.08418464  0.47560417    -0.60800
O2129       O  0.97388994  0.08415836  0.47883888    -0.73300
O2130       O  0.90687321  0.08437449  0.40528087    -0.72100
Cu2131     Cu  0.94084853  0.03149873  0.44148954     1.04600
Cu2132     Cu  0.94018022  0.08669866  0.44192448     1.04300
C2133       C  0.89609088  0.05690022  0.39798852     0.94200
C2134       C  0.98625562  0.05685434  0.48459750     0.93300
C2135       C  0.89612776  0.05651449  0.48628160     0.85500
C2136       C  0.98390731  0.05582660  0.39604127     0.91800
O2137       O  0.79230853  0.47498402  0.47230847    -0.72000
O2138       O  0.79405399  0.40312679  0.40079287    -0.73000
O2139       O  0.79288679  0.40379885  0.47195692    -0.61600
O2140       O  0.79413499  0.47412797  0.40079258    -0.70000
O2141       O  0.84589129  0.47007514  0.40582834    -0.69600
O2142       O  0.84497501  0.40735662  0.47021354    -0.60800
O2143       O  0.84581770  0.40620316  0.40627485    -0.73300
O2144       O  0.84414377  0.47119085  0.47006820    -0.72100
Cu2145     Cu  0.79068162  0.43901532  0.43640594     1.04600
Cu2146     Cu  0.84610146  0.43870635  0.43808390     1.04300
C2147       C  0.81977782  0.48394394  0.48238548     0.94200
C2148       C  0.82209810  0.39371241  0.39276724     0.93300
C2149       C  0.82051263  0.39477340  0.48175238     0.85500
C2150       C  0.82215951  0.48310830  0.39277809     0.91800
O2151       O  0.97593055  0.29248844  0.47627275    -0.72000
O2152       O  0.90382280  0.29281384  0.40638030    -0.73000
O2153       O  0.97423382  0.29357722  0.40518823    -0.61600
O2154       O  0.90565495  0.29134755  0.47766291    -0.70000
O2155       O  0.90272675  0.34229850  0.46842193    -0.69600
O2156       O  0.97588981  0.34496805  0.41410045    -0.60800
O2157       O  0.91224781  0.34415124  0.40494122    -0.73300
O2158       O  0.96665892  0.34384923  0.47825752    -0.72100
Cu2159     Cu  0.93996776  0.28987185  0.44131732     1.04600
Cu2160     Cu  0.93932808  0.34484729  0.44153271     1.04300
C2161       C  0.98206038  0.31993473  0.48816393     0.94200
C2162       C  0.89763660  0.32025494  0.39434811     0.93300
C2163       C  0.98613392  0.32091078  0.39908342     0.85500
C2164       C  0.89267299  0.31840655  0.48345238     0.91800
C2165       C  0.65661687  0.03622413  0.50855248    -0.13400
C2166       C  0.67173654  0.02035375  0.03464112     0.17000
C2167       C  0.65274231  0.00454187  0.05720521     0.03300
C2168       C  0.61950573  0.00586571  0.05452876    -0.11900
C2169       C  0.60477709  0.02451566  0.03111743    -0.03000
C2170       C  0.62376851  0.04040768  0.50774159     0.02500
C2171       C  0.70688803  0.02142183  0.03630779     0.09400
N2172       N  0.66644630  0.98942400  0.08439576     0.65700
H2173       H  0.60522615  0.99287595  0.07132992     0.18600
N2174       N  0.61089756  0.06284530  0.48595899     0.76200
H2175       H  0.67120347  0.04887202  0.49159742     0.10100
C2176       C  0.72583982  0.49442202  0.02774227     0.03800
C2177       C  0.75885759  0.49717230  0.02881412    -0.04900
C2178       C  0.77390458  0.02747953  0.03167839    -0.23300
C2179       C  0.75424463  0.05439422  0.03853244     0.13100
C2180       C  0.72129141  0.05081891  0.04083465    -0.12400
N2181       N  0.71343445  0.46307778  0.52989390     0.64800
H2182       H  0.77360522  0.47576048  0.52888418     0.12600
N2183       N  0.76619636  0.08578571  0.04277821     0.61400
H2184       H  0.70661302  0.07156014  0.04547044     0.08800
O2185       O  0.61580787  0.09182564  0.49153501    -0.40100
O2186       O  0.60535877  0.05407048  0.45771828    -0.39200
O2187       O  0.66886664  0.00507992  0.10994798    -0.39200
O2188       O  0.66632748  0.95958189  0.08582418    -0.37000
O2189       O  0.75911878  0.10610613  0.02188700    -0.37900
O2190       O  0.77022508  0.09556752  0.07094563    -0.34000
O2191       O  0.70776998  0.45100233  0.50294530    -0.35400
O2192       O  0.71938900  0.44497442  0.55297044    -0.39700
C2193       C  0.82826305  0.15218459  0.50546532    -0.13400
C2194       C  0.85060895  0.17096399  0.02417066     0.17000
C2195       C  0.87246535  0.15483291  0.04368033     0.03300
C2196       C  0.87254486  0.12155853  0.04453553    -0.11900
C2197       C  0.85161375  0.10400927  0.02530679    -0.03000
C2198       C  0.82864397  0.11879088  0.50482007     0.02500
C2199       C  0.84849391  0.20604085  0.02402846     0.09400
N2200       N  0.89556170  0.17214054  0.06150799     0.65700
H2201       H  0.88926246  0.10932771  0.05996037     0.18600
N2202       N  0.80752327  0.10299243  0.48274919     0.76200
H2203       H  0.81183079  0.16520280  0.49041717     0.10100
C2204       C  0.85526285  0.22202627  0.49786106     0.03800
C2205       C  0.85214523  0.25524207  0.49789646    -0.04900
C2206       C  0.84368327  0.27345436  0.02490056    -0.23300
C2207       C  0.83167698  0.25477810  0.05052365     0.13100
C2208       C  0.83497257  0.22168604  0.05002343    -0.12400
N2209       N  0.86785637  0.20618759  0.47045082     0.64800
H2210       H  0.85596100  0.26751982  0.47575573     0.12600
N2211       N  0.81218111  0.26777511  0.07508756     0.61400
H2212       H  0.82587226  0.20794572  0.06976650     0.08800
O2213       O  0.79118595  0.11904089  0.46323840    -0.40100
O2214       O  0.80376837  0.07340956  0.48313306    -0.39200
O2215       O  0.88847822  0.18274347  0.08873922    -0.39200
O2216       O  0.91953816  0.18296773  0.04732005    -0.37000
O2217       O  0.78245662  0.26895731  0.07102767    -0.37900
O2218       O  0.82360031  0.27302602  0.10239026    -0.34000
O2219       O  0.84949449  0.19839857  0.44801084    -0.35400
O2220       O  0.89556419  0.19460712  0.47151311    -0.39700
C2221       C  0.53262497  0.15818581  0.00136352    -0.13400
C2222       C  0.53062813  0.17359270  0.03091863     0.17000
C2223       C  0.52865992  0.15488938  0.05871722     0.03300
C2224       C  0.52854846  0.12170625  0.05635862    -0.11900
C2225       C  0.53017876  0.10610008  0.02678373    -0.03000
C2226       C  0.53294670  0.12497570  0.99883764     0.02500
C2227       C  0.52971636  0.20902527  0.03170410     0.09400
N2228       N  0.02686743  0.16700807  0.09009204     0.65700
H2229       H  0.02685270  0.10617394  0.07814938     0.18600
N2230       N  0.53902182  0.11258085  0.46728879     0.76200
H2231       H  0.53615798  0.17317780  0.47908695     0.10100
C2232       C  0.55374137  0.22734092  0.01715762     0.03800
C2233       C  0.55128925  0.26042864  0.01676438    -0.04900
C2234       C  0.52518813  0.27598064  0.03023572    -0.23300
C2235       C  0.00093019  0.25666217  0.04502875     0.13100
C2236       C  0.00323297  0.22339205  0.04581893    -0.12400
N2237       N  0.58139651  0.21297201  0.00353259     0.64800
H2238       H  0.57014453  0.27415797  0.00607428     0.12600
N2239       N  0.97446397  0.27228142  0.05965736     0.61400
H2240       H  0.98428642  0.20998118  0.05665649     0.08800
O2241       O  0.51788082  0.11750899  0.44655626    -0.40100
O2242       O  0.56704470  0.10891069  0.45752244    -0.39200
O2243       O  0.00040316  0.16872970  0.10406634    -0.39200
O2244       O  0.05194219  0.16783625  0.10659437    -0.37000
O2245       O  0.97739439  0.28391135  0.08721986    -0.37900
O2246       O  0.95030145  0.27920292  0.04318293    -0.34000
O2247       O  0.58323938  0.21067741  0.97359640    -0.35400
O2248       O  0.60666598  0.21231616  0.01974820    -0.39700
C2249       C  0.72397498  0.33451960  0.49885231    -0.13400
C2250       C  0.70639501  0.34906854  0.02347229     0.17000
C2251       C  0.72229110  0.36860035  0.04619227     0.03300
C2252       C  0.75560667  0.37016190  0.04558169    -0.11900
C2253       C  0.77317178  0.35361216  0.02270412    -0.03000
C2254       C  0.75701036  0.33674290  0.49810254     0.02500
C2255       C  0.67136101  0.34478291  0.02378221     0.09400
N2256       N  0.70532777  0.38717958  0.06967049     0.65700
H2257       H  0.76804624  0.38458106  0.06293175     0.18600
N2258       N  0.77400173  0.32121844  0.47303195     0.76200
H2259       H  0.71237579  0.32000301  0.48107942     0.10100
C2260       C  0.65189644  0.34946285  0.49544589     0.03800
C2261       C  0.61890704  0.34826623  0.49805923    -0.04900
C2262       C  0.60448046  0.34643642  0.02821064    -0.23500
C2263       C  0.62344741  0.34172847  0.05583662     0.13100
C2264       C  0.65634787  0.33893637  0.05289907    -0.12400
N2265       N  0.66506595  0.35646540  0.46495852     0.64800
H2266       H  0.60478719  0.34958290  0.47650641     0.12600
N2267       N  0.61063933  0.34275727  0.08735244     0.61400
H2268       H  0.67046822  0.33524166  0.07422669     0.08800
O2269       O  0.77684503  0.33514505  0.44662184    -0.40100
O2270       O  0.77821310  0.29159164  0.47430225    -0.39200
O2271       O  0.71899812  0.39549479  0.09515362    -0.39200
O2272       O  0.67861160  0.39931395  0.06312307    -0.37000
O2273       O  0.60998526  0.31747268  0.10337547    -0.37900
O2274       O  0.61083003  0.36886368  0.10208792    -0.34000
O2275       O  0.66482248  0.33519492  0.44376759    -0.35400
O2276       O  0.66691670  0.38508508  0.45650486    -0.39700
C2277       C  0.50867293  0.34046012  0.22510090    -0.13400
C2278       C  0.53463450  0.35438571  0.20998269     0.17000
C2279       C  0.55928301  0.36709850  0.22863010     0.03300
C2280       C  0.55661538  0.36735708  0.26204966    -0.11900
C2281       C  0.53028389  0.35364035  0.27726630    -0.03000
C2282       C  0.50692294  0.33838900  0.25845428     0.02500
C2283       C  0.53554052  0.35478010  0.17461970     0.09400
N2284       N  0.58796994  0.37754738  0.21391516     0.65700
H2285       H  0.57565180  0.37730598  0.27625727     0.18600
N2286       N  0.48297378  0.31851017  0.27226881     0.76200
H2287       H  0.49000563  0.33019560  0.21065347     0.10100
C2288       C  0.53532456  0.32637619  0.15697687     0.03800
C2289       C  0.53240509  0.32725547  0.12388820    -0.04900
C2290       C  0.53124473  0.35605862  0.10728435    -0.23300
C2291       C  0.53456795  0.38472532  0.12480982     0.13100
C2292       C  0.53540571  0.38376990  0.15829126    -0.12400
N2293       N  0.53966103  0.29637848  0.17214970     0.64800
H2294       H  0.53148931  0.30494831  0.11111783     0.12600
N2295       N  0.03950883  0.41262251  0.10996779     0.61400
H2296       H  0.03553557  0.40380034  0.17204103     0.08800
O2297       O  0.47100230  0.29631970  0.25604797    -0.40100
O2298       O  0.47555134  0.32095613  0.30124455    -0.39200
O2299       O  0.59169498  0.40659331  0.20796691    -0.39200
O2300       O  0.60666358  0.35738316  0.20172357    -0.37000
O2301       O  0.06726472  0.41844310  0.10046232    -0.37900
O2302       O  0.02115968  0.43569099  0.11577688    -0.34000
O2303       O  0.51578857  0.27923329  0.17722898    -0.35400
O2304       O  0.56695518  0.28380654  0.17214015    -0.39700
C2305       C  0.99903280  0.03845295  0.15609849    -0.13400
C2306       C  0.52619325  0.03095739  0.17250647     0.17000
C2307       C  0.55238124  0.01934814  0.15484990     0.03300
C2308       C  0.55111153  0.01866075  0.12166888    -0.11900
C2309       C  0.52440204  0.02945378  0.10520355    -0.03000
C2310       C  0.99814400  0.03886943  0.12254674     0.02500
C2311       C  0.52663975  0.03068811  0.20802720     0.09400
N2312       N  0.58123673  0.00962048  0.17000852     0.65700
H2313       H  0.57150815  0.01005485  0.10866496     0.18600
N2314       N  0.97130620  0.05242860  0.10647346     0.76200
H2315       H  0.97883055  0.04749433  0.16932803     0.10100
C2316       C  0.52278550  0.05859752  0.22629060     0.03800
C2317       C  0.52440607  0.05721639  0.25957623    -0.04900
C2318       C  0.52944259  0.02849000  0.27560456    -0.23300
C2319       C  0.53445433  0.49921229  0.25733784     0.13100
C2320       C  0.53258118  0.50056137  0.22391458    -0.12400
N2321       N  0.51852372  0.08883629  0.21158118     0.64800
H2322       H  0.52211276  0.07905679  0.27295324     0.12600
N2323       N  0.54465953  0.47008961  0.27167744     0.61400
H2324       H  0.53642356  0.47903939  0.21023935     0.08800
O2325       O  0.94730092  0.03567107  0.10053370    -0.40100
O2326       O  0.97308970  0.07990914  0.09484022    -0.39200
O2327       O  0.58806832  0.98044345  0.17090475    -0.39200
O2328       O  0.60329850  0.02953891  0.17276283    -0.37000
O2329       O  0.57388794  0.46621926  0.27725138    -0.37900
O2330       O  0.52753663  0.44582708  0.26862340    -0.34000
O2331       O  0.99167948  0.09719586  0.21115460    -0.35400
O2332       O  0.54235830  0.10647684  0.20822743    -0.39700
C2333       C  0.99434856  0.15305550  0.34367532    -0.13400
C2334       C  0.52053058  0.17384643  0.35600444     0.17000
C2335       C  0.54718685  0.15694268  0.36786662     0.03300
C2336       C  0.54723858  0.12381415  0.36803427    -0.11900
C2337       C  0.52261507  0.10686134  0.35407781    -0.03000
C2338       C  0.99533182  0.11968270  0.34264215     0.02500
C2339       C  0.51996275  0.20926084  0.35641203     0.09400
N2340       N  0.57537376  0.17298491  0.37769325     0.65700
H2341       H  0.56703984  0.11106450  0.37849179     0.18600
N2342       N  0.96934031  0.10272357  0.32912383     0.76200
H2343       H  0.97325715  0.16540326  0.33539475     0.10100
C2344       C  0.51409007  0.22724882  0.32863849     0.03800
C2345       C  0.51767312  0.26019115  0.32925863    -0.04900
C2346       C  0.52607234  0.27617476  0.35724368    -0.23300
C2347       C  0.53144352  0.25837847  0.38540913     0.13100
C2348       C  0.52784475  0.22533788  0.38472010    -0.12400
N2349       N  0.00560695  0.20973229  0.29824834     0.64800
H2350       H  0.01438964  0.27037246  0.30711023     0.12600
N2351       N  0.54217938  0.27284638  0.41442446     0.61400
H2352       H  0.53218436  0.21199625  0.40636402     0.08800
O2353       O  0.94552230  0.09614340  0.34596906    -0.40100
O2354       O  0.97246775  0.08998018  0.30212812    -0.39200
O2355       O  0.58647763  0.16827460  0.40525318    -0.39200
O2356       O  0.59259519  0.18587075  0.35690621    -0.37000
O2357       O  0.52361952  0.27389971  0.43791419    -0.37900
O2358       O  0.57157833  0.27388043  0.41993808    -0.34000
O2359       O  0.97711984  0.21168522  0.28898533    -0.35400
O2360       O  0.02705157  0.20422259  0.27799284    -0.39700
C2361       C  0.88284684  0.03487279  0.22293866    -0.13400
C2362       C  0.85411871  0.02866332  0.20704099     0.17000
C2363       C  0.82856176  0.52148032  0.22480812     0.03300
C2364       C  0.83018934  0.52040417  0.25804738    -0.11900
C2365       C  0.85768781  0.02807364  0.27476923    -0.03000
C2366       C  0.88470102  0.03557821  0.25635647     0.02500
C2367       C  0.85335768  0.02845080  0.17131292     0.09400
N2368       N  0.79839112  0.51641915  0.21007574     0.65700
H2369       H  0.80944670  0.51321499  0.27100689     0.18600
N2370       N  0.91350817  0.04625160  0.27067566     0.76200
H2371       H  0.90412524  0.03956756  0.20938236     0.10100
C2372       C  0.86724663  0.05298091  0.15301905     0.03800
C2373       C  0.86734933  0.05112071  0.11973796    -0.04900
C2374       C  0.85357533  0.02556661  0.10389895    -0.23300
C2375       C  0.84077972  0.50101190  0.12172276     0.13100
C2376       C  0.84211340  0.50215041  0.15506220    -0.12400
N2377       N  0.87979434  0.08093031  0.16747527     0.64800
H2378       H  0.87767563  0.07023461  0.10609125     0.12600
N2379       N  0.82351527  0.47625083  0.10627507     0.61400
H2380       H  0.83202245  0.48281962  0.16839061     0.08800
O2381       O  0.91822985  0.07571180  0.27162959    -0.40100
O2382       O  0.93731929  0.02791869  0.27077898    -0.39200
O2383       O  0.78706259  0.48879008  0.20985966    -0.39200
O2384       O  0.77971836  0.53975450  0.20696978    -0.37000
O2385       O  0.79511139  0.48117519  0.09789622    -0.37900
O2386       O  0.83804410  0.45208547  0.09593249    -0.34000
O2387       O  0.90950178  0.08472398  0.16777232    -0.35400
O2388       O  0.86199310  0.10501723  0.16984094    -0.39700
C2389       C  0.72731030  0.03837514  0.38169875    -0.13400
C2390       C  0.71121331  0.03844206  0.35245920     0.17000
C2391       C  0.72879921  0.03726298  0.32409708     0.03300
C2392       C  0.76174698  0.03532808  0.32535813    -0.11900
C2393       C  0.77821754  0.03298800  0.35426568    -0.03000
C2394       C  0.76060016  0.03515730  0.38334479     0.02500
C2395       C  0.67607012  0.03742395  0.35199616     0.09400
N2396       N  0.71365750  0.03598961  0.29364556     0.65700
H2397       H  0.77436668  0.03467035  0.30312071     0.18600
N2398       N  0.77507087  0.03399659  0.41454226     0.76200
H2399       H  0.71356152  0.03989665  0.40346157     0.10100
C2400       C  0.65937903  0.50989208  0.36352896     0.03800
C2401       C  0.62638210  0.50859421  0.35980539    -0.04900
C2402       C  0.60820846  0.03666237  0.35117288    -0.23300
C2403       C  0.62562453  0.06390437  0.34051305     0.13100
C2404       C  0.65898744  0.06319540  0.34006680    -0.12400
N2405       N  0.67523954  0.48515200  0.38093729     0.64800
H2406       H  0.61537989  0.48589547  0.36243035     0.12600
N2407       N  0.61122361  0.09285799  0.33001590     0.61400
H2408       H  0.67174791  0.08368223  0.33139312     0.08800
O2409       O  0.75928333  0.02432956  0.43812898    -0.40100
O2410       O  0.80298983  0.04351985  0.41919450    -0.39200
O2411       O  0.71391987  0.06036647  0.27627409    -0.39200
O2412       O  0.70954752  0.00924840  0.28076998    -0.37000
O2413       O  0.61513494  0.11710245  0.34721553    -0.37900
O2414       O  0.60831669  0.09703904  0.30034971    -0.34000
O2415       O  0.66293857  0.47479739  0.40624332    -0.35400
O2416       O  0.70229929  0.47509532  0.37263962    -0.39700
C2417       C  0.87635988  0.35961006  0.21846052    -0.13400
C2418       C  0.84666749  0.35490305  0.20458826     0.17000
C2419       C  0.82028868  0.34955396  0.22443654     0.03300
C2420       C  0.82423555  0.35002314  0.25752975    -0.11900
C2421       C  0.85428082  0.35348015  0.27178140    -0.03000
C2422       C  0.88101785  0.35698507  0.25132315     0.02500
C2423       C  0.84525463  0.35393974  0.16932667     0.09400
N2424       N  0.79016213  0.34033481  0.21184500     0.65700
H2425       H  0.80349502  0.34611599  0.27209832     0.18600
N2426       N  0.91314649  0.35460026  0.26233292     0.76200
H2427       H  0.89671030  0.36299565  0.20309316     0.10100
C2428       C  0.82763774  0.37648977  0.15181390     0.03800
C2429       C  0.82851138  0.37575729  0.11835449    -0.04900
C2430       C  0.84898474  0.35464669  0.10240270    -0.23300
C2431       C  0.86870290  0.33420365  0.11997785     0.13100
C2432       C  0.86586361  0.33308673  0.15309125    -0.12400
N2433       N  0.81168906  0.40204689  0.16773044     0.64800
H2434       H  0.81426504  0.39247957  0.10483115     0.12600
N2435       N  0.89345897  0.31651940  0.10466218     0.61400
H2436       H  0.88095794  0.31689791  0.16638391     0.08800
O2437       O  0.93546779  0.36727492  0.24695855    -0.40100
O2438       O  0.91962536  0.33869605  0.28674230    -0.39200
O2439       O  0.78563026  0.31129004  0.20627084    -0.39200
O2440       O  0.76635086  0.35799835  0.21680887    -0.37000
O2441       O  0.92007160  0.32933501  0.10024346    -0.37900
O2442       O  0.88746085  0.29039676  0.09134688    -0.34000
O2443       O  0.82756659  0.42229209  0.18307603    -0.35400
O2444       O  0.78176500  0.40324930  0.16833846    -0.39700
C2445       C  0.65778511  0.32011738  0.34723264    -0.13400
C2446       C  0.67489676  0.34830377  0.35023148     0.17000
C2447       C  0.65736360  0.37699864  0.35290320     0.03300
C2448       C  0.62418064  0.37688950  0.35272705    -0.11900
C2449       C  0.60721331  0.34858024  0.35277727    -0.03000
C2450       C  0.62459309  0.31965557  0.34955176     0.02500
C2451       C  0.71058732  0.34762407  0.34906791     0.09400
N2452       N  0.67263097  0.40654127  0.35804691     0.65700
H2453       H  0.61166174  0.39939980  0.35304054     0.18600
N2454       N  0.60984703  0.28922676  0.35016225     0.76200
H2455       H  0.67007370  0.29794121  0.34303531     0.10100
C2456       C  0.72936791  0.32466453  0.36545361     0.03800
C2457       C  0.76256517  0.32642999  0.36472916    -0.04900
C2458       C  0.77797280  0.35033154  0.34796158    -0.23300
C2459       C  0.75965181  0.37246162  0.33052731     0.13100
C2460       C  0.72644136  0.37049823  0.33078397    -0.12400
N2461       N  0.71563844  0.29929878  0.38309865     0.64800
H2462       H  0.77646890  0.30908668  0.37783457     0.12600
N2463       N  0.77404776  0.39746777  0.31286673     0.61400
H2464       H  0.71300935  0.38717619  0.31645049     0.08800
O2465       O  0.60558859  0.27495417  0.32404456    -0.40100
O2466       O  0.61378507  0.27259770  0.37479215    -0.39200
O2467       O  0.66958870  0.42809981  0.33741653    -0.39200
O2468       O  0.68046750  0.41379890  0.38613678    -0.37000
O2469       O  0.77242046  0.39682941  0.28284106    -0.37900
O2470       O  0.77827039  0.42379391  0.32653184    -0.34000
O2471       O  0.71583544  0.27188255  0.37092583    -0.35400
O2472       O  0.71388002  0.30183589  0.41298784    -0.39700
C2473       C  0.84491576  0.15624132  0.37349538    -0.13400
C2474       C  0.85855216  0.17093588  0.34690138     0.17000
C2475       C  0.87269286  0.15162204  0.32311463     0.03300
C2476       C  0.87226512  0.11859045  0.32617114    -0.11900
C2477       C  0.85828272  0.10420292  0.35246334    -0.03000
C2478       C  0.84433021  0.12321292  0.37610189     0.02500
C2479       C  0.85814201  0.20620429  0.34515676     0.09400
N2480       N  0.88560355  0.16473481  0.29465920     0.65700
H2481       H  0.88194287  0.10402649  0.30734327     0.18600
N2482       N  0.82680523  0.10921098  0.40122149     0.76200
H2483       H  0.83418347  0.17044655  0.39214241     0.10100
C2484       C  0.82965079  0.22382990  0.34790577     0.03800
C2485       C  0.83035089  0.25692811  0.34862776    -0.04900
C2486       C  0.85895686  0.27353272  0.34743345    -0.23300
C2487       C  0.88792898  0.25591217  0.34474256     0.13100
C2488       C  0.88691213  0.22254530  0.34350264    -0.12400
N2489       N  0.79952886  0.20862049  0.34963525     0.64800
H2490       H  0.80808960  0.26977662  0.35062953     0.12600
N2491       N  0.91846435  0.27084928  0.34322043     0.61400
H2492       H  0.90887819  0.20909871  0.34178470     0.08800
O2493       O  0.79741041  0.10483654  0.39756001    -0.40100
O2494       O  0.84134584  0.09620995  0.42406968    -0.39200
O2495       O  0.91530435  0.16384042  0.29073622    -0.39200
O2496       O  0.86787671  0.16693322  0.27046491    -0.37000
O2497       O  0.92145906  0.29770874  0.33074922    -0.37900
O2498       O  0.94298900  0.25660884  0.35325172    -0.34000
O2499       O  0.78568311  0.20717496  0.37622993    -0.35400
O2500       O  0.78327614  0.20592644  0.32449439    -0.39700
C2501       C  0.86693251  0.36501717  0.86279655     0.46400
H2502       H  0.88113269  0.37968705  0.87880989    -0.02600
C2503       C  0.83392399  0.33015907  0.82597606     0.46500
H2504       H  0.81943339  0.31448861  0.81053741    -0.02600
C2505       C  0.83132636  0.37057498  0.86802483    -0.16300
C2506       C  0.87355918  0.37221639  0.82752944    -0.16100
C2507       C  0.87392635  0.32973426  0.86838153    -0.16400
C2508       C  0.81338640  0.35218246  0.84806373    -0.16400
C2509       C  0.85592691  0.35339013  0.80722429    -0.16000
C2510       C  0.85684840  0.31075809  0.84823358    -0.16300
C2511       C  0.86637429  0.01618040  0.86478720     0.46400
H2512       H  0.88130127  0.50044834  0.87995626    -0.02600
C2513       C  0.83267160  0.05249251  0.82956885     0.46500
H2514       H  0.81808987  0.06844314  0.81430626    -0.02600
C2515       C  0.87356070  0.01087419  0.82945557    -0.16300
C2516       C  0.83099460  0.01014859  0.86975504    -0.16100
C2517       C  0.87225984  0.05131098  0.87186632    -0.16400
C2518       C  0.85579783  0.03026814  0.81015253    -0.16400
C2519       C  0.81259607  0.03066700  0.85231455    -0.16000
C2520       C  0.85476435  0.07090815  0.85263398    -0.16300
C2521       C  0.51797831  0.01557229  0.86622191     0.46400
H2522       H  0.00399299  0.49951549  0.88232409    -0.02600
C2523       C  0.54976481  0.05188963  0.83020394     0.46500
H2524       H  0.56166844  0.06777862  0.81365716    -0.02600
C2525       C  0.55396706  0.01181762  0.87278464    -0.16300
C2526       C  0.51252587  0.00808504  0.83084862    -0.16100
C2527       C  0.50898281  0.05034073  0.87145434    -0.16400
C2528       C  0.57180270  0.03191494  0.85295789    -0.16400
C2529       C  0.53001759  0.02698719  0.81126892    -0.16000
C2530       C  0.52580171  0.06992701  0.85230250    -0.16300
C2531       C  0.51788489  0.36460877  0.86702213     0.46400
H2532       H  0.00321712  0.37865106  0.88201451    -0.02600
C2533       C  0.55098742  0.32738466  0.83215738     0.46500
H2534       H  0.56456692  0.31148342  0.81618010    -0.02600
C2535       C  0.51105073  0.37013843  0.83149804    -0.16300
C2536       C  0.55380365  0.36972722  0.87220305    -0.16100
C2537       C  0.51113174  0.32980514  0.87442929    -0.16400
C2538       C  0.52945875  0.35072129  0.81263440    -0.16400
C2539       C  0.57187272  0.34897941  0.85375660    -0.16000
C2540       C  0.52886928  0.30957892  0.85606900    -0.16300
C2541       C  0.51504300  0.36635563  0.51668975     0.46400
H2542       H  0.00086410  0.37845078  0.00151214    -0.02600
C2543       C  0.54863276  0.33053033  0.55234144     0.46500
H2544       H  0.56265491  0.31390119  0.56705882    -0.02600
C2545       C  0.55071262  0.37050864  0.51029153    -0.16300
C2546       C  0.50972988  0.37388357  0.55209933    -0.16100
C2547       C  0.50699383  0.33131214  0.51178099    -0.16400
C2548       C  0.56898684  0.35083120  0.52942675    -0.16400
C2549       C  0.52836531  0.35521675  0.57158639    -0.16000
C2550       C  0.52511449  0.31210070  0.53070141    -0.16300
C2551       C  0.86278359  0.36242094  0.51315069     0.46400
H2552       H  0.87827704  0.37833344  0.99866521    -0.02600
C2553       C  0.82540585  0.33068981  0.54815716     0.46500
H2554       H  0.80794472  0.31981858  0.56385646    -0.02600
C2555       C  0.82774045  0.37008027  0.50621597    -0.16300
C2556       C  0.86722702  0.32634627  0.50782944    -0.16100
C2557       C  0.86906274  0.36901187  0.54837679    -0.16400
C2558       C  0.80787909  0.35274895  0.52458522    -0.16400
C2559       C  0.84656124  0.30835805  0.52650775    -0.16000
C2560       C  0.84865259  0.35244408  0.56715904    -0.16300
C2561       C  0.51535250  0.01747360  0.51521849     0.46400
H2562       H  0.00068208  0.49916465  0.00031830    -0.02600
C2563       C  0.55068445  0.05162379  0.55079106     0.46500
H2564       H  0.56631689  0.06599521  0.56644434    -0.02600
C2565       C  0.50763913  0.01236689  0.55038216    -0.16300
C2566       C  0.55054050  0.00972459  0.51055951    -0.16100
C2567       C  0.51090168  0.05303860  0.50834033    -0.16400
C2568       C  0.52628250  0.03080667  0.56965410    -0.16400
C2569       C  0.56957799  0.02790203  0.52933983    -0.16000
C2570       C  0.53030837  0.07178216  0.52675948    -0.16300
C2571       C  0.86326567  0.01284468  0.51367079     0.46400
H2572       H  0.87811557  0.49960073  0.99878816    -0.02600
C2573       C  0.82945006  0.04726306  0.55057384     0.46500
H2574       H  0.81647075  0.06210205  0.56773892    -0.02600
C2575       C  0.82753433  0.00719073  0.50785814    -0.16300
C2576       C  0.86982091  0.00550292  0.54867556    -0.16100
C2577       C  0.86982037  0.04824878  0.50889196    -0.16400
C2578       C  0.80877355  0.02521086  0.52871958    -0.16400
C2579       C  0.85216114  0.02418433  0.56846563    -0.16000
C2580       C  0.85086667  0.06695138  0.52764071    -0.16300
O2581       O  0.90415288  0.46638735  0.53278529    -0.72000
O2582       O  0.97500364  0.40931332  0.53504970    -0.73000
O2583       O  0.91052854  0.40223928  0.53277264    -0.61600
O2584       O  0.96818563  0.47305734  0.53441470    -0.70000
O2585       O  0.97457117  0.47268815  0.58636995    -0.69600
O2586       O  0.90191084  0.40334095  0.58443960    -0.60800
O2587       O  0.97305569  0.40164538  0.58677277    -0.73300
O2588       O  0.90391375  0.47380454  0.58475750    -0.72100
Cu2589     Cu  0.93950681  0.43767880  0.53274820     1.04600
Cu2590     Cu  0.93831922  0.43781185  0.58823140     1.04300
C2591       C  0.89329686  0.48088093  0.55689500     0.94200
C2592       C  0.98531480  0.39506657  0.55950848     0.93300
C2593       C  0.89509150  0.39228476  0.55659104     0.85500
C2594       C  0.98219076  0.48380693  0.55885459     0.91800
O2595       O  0.90818815  0.47667322  0.79446183    -0.72000
O2596       O  0.97812224  0.40415920  0.79588207    -0.73000
O2597       O  0.90667034  0.40798321  0.79446206    -0.61600
O2598       O  0.97848617  0.47523355  0.79629426    -0.70000
O2599       O  0.97562719  0.47072504  0.84838322    -0.69600
O2600       O  0.90970196  0.40932975  0.84657680    -0.60800
O2601       O  0.97394961  0.40679986  0.84798753    -0.73300
O2602       O  0.91150200  0.47337130  0.84660550    -0.72100
Cu2603     Cu  0.94300894  0.44097399  0.79272378     1.04600
Cu2604     Cu  0.94261294  0.44011018  0.84843223     1.04300
C2605       C  0.89911589  0.48595838  0.82214557     0.94200
C2606       C  0.98687832  0.39442988  0.82370777     0.93300
C2607       C  0.89738534  0.39786242  0.82162179     0.85500
C2608       C  0.98812956  0.48329163  0.82420007     0.91800
O2609       O  0.58708165  0.40417192  0.97853064    -0.72000
O2610       O  0.58919645  0.47578185  0.90793566    -0.73000
O2611       O  0.58704319  0.47467664  0.97818145    -0.61600
O2612       O  0.58931642  0.40318392  0.90740925    -0.70000
O2613       O  0.53774488  0.41021039  0.90641175    -0.69600
O2614       O  0.53520416  0.46917485  0.97511998    -0.60800
O2615       O  0.53759405  0.47437173  0.91101881    -0.73300
O2616       O  0.53554206  0.40499995  0.97057308    -0.72100
Cu2617     Cu  0.59078070  0.43940113  0.94299907     1.04600
Cu2618     Cu  0.53559021  0.43969530  0.94074528     1.04300
C2619       C  0.55930437  0.39352812  0.98521904     0.94200
C2620       C  0.56202086  0.48651278  0.89857230     0.93300
C2621       C  0.55898727  0.48275432  0.98727765     0.85500
C2622       C  0.56190601  0.39552840  0.89614790     0.91800
O2623       O  0.90585338  0.03420388  0.91197944    -0.72000
O2624       O  0.97538736  0.03343868  0.96948348    -0.73000
O2625       O  0.91148874  0.03372900  0.97579127    -0.61600
O2626       O  0.96938587  0.03255971  0.90589724    -0.70000
O2627       O  0.97654981  0.08416792  0.90703741    -0.69600
O2628       O  0.90329837  0.08531903  0.97523259    -0.60800
O2629       O  0.97349134  0.08476765  0.97826426    -0.73300
O2630       O  0.90650892  0.08590971  0.90485674    -0.72100
Cu2631     Cu  0.94047340  0.03245993  0.94086976     1.04600
Cu2632     Cu  0.94002180  0.08772139  0.94140169     1.04300
C2633       C  0.89573958  0.05847959  0.89741424     0.94200
C2634       C  0.98561886  0.05743732  0.98426870     0.93300
C2635       C  0.89629887  0.05766993  0.98590214     0.85500
C2636       C  0.98383840  0.05662205  0.89572353     0.91800
O2637       O  0.79249251  0.47579867  0.97242629    -0.72000
O2638       O  0.79436549  0.40436993  0.90080066    -0.73000
O2639       O  0.79277257  0.40462288  0.97200289    -0.61600
O2640       O  0.79481626  0.47510685  0.90101277    -0.70000
O2641       O  0.84661339  0.47087766  0.90579672    -0.69600
O2642       O  0.84481269  0.40871896  0.97085097    -0.60800
O2643       O  0.84610678  0.40696496  0.90690680    -0.73300
O2644       O  0.84431243  0.47244379  0.97015021    -0.72100
Cu2645     Cu  0.79095956  0.43999228  0.93649680     1.04600
Cu2646     Cu  0.84636789  0.43973499  0.93842564     1.04300
C2647       C  0.81986572  0.48490254  0.98260278     0.94200
C2648       C  0.82241565  0.39485201  0.89299155     0.93300
C2649       C  0.82036213  0.39588742  0.98213976     0.85500
C2650       C  0.82284252  0.48398561  0.89286597     0.91800
O2651       O  0.97569433  0.29359402  0.97619962    -0.72000
O2652       O  0.90380413  0.29437563  0.90604827    -0.73000
O2653       O  0.97400989  0.29461782  0.90501767    -0.61600
O2654       O  0.90564185  0.29286996  0.97736244    -0.70000
O2655       O  0.90281020  0.34386486  0.96826112    -0.69600
O2656       O  0.97614739  0.34597592  0.91397726    -0.60800
O2657       O  0.91251484  0.34567014  0.90467578    -0.73300
O2658       O  0.96677474  0.34500822  0.97817844    -0.72100
Cu2659     Cu  0.93982699  0.29119446  0.94110028     1.04600
Cu2660     Cu  0.93951581  0.34617945  0.94137507     1.04300
C2661       C  0.98195407  0.32098265  0.98815784     0.94200
C2662       C  0.89785210  0.32184917  0.89397081     0.93300
C2663       C  0.98613531  0.32182498  0.89891882     0.85500
C2664       C  0.89273556  0.31993006  0.98323383     0.91800
C2665       C  0.65688617  0.03833572  0.01090098    -0.13400
C2666       C  0.67096236  0.01738584  0.53189944     0.17000
C2667       C  0.65178836  0.00209421  0.55463500     0.03300
C2668       C  0.61868294  0.00485927  0.55258668    -0.11900
C2669       C  0.60447435  0.02453230  0.52978884    -0.03000
C2670       C  0.62389210  0.04116205  0.00947173     0.02500
C2671       C  0.70597478  0.01736538  0.53355112     0.09400
N2672       N  0.66528246  0.98624604  0.58152005     0.65700
H2673       H  0.60412969  0.99222648  0.56942324     0.18600
N2674       N  0.61062926  0.06320045  0.98752537     0.76200
H2675       H  0.67114300  0.05142297  0.99400049     0.10100
C2676       C  0.72628107  0.49407507  0.53134081     0.03800
C2677       C  0.75925342  0.49714341  0.52998387    -0.04900
C2678       C  0.77312670  0.02321925  0.53209698    -0.23300
C2679       C  0.75333268  0.04921548  0.54160505     0.13100
C2680       C  0.72046953  0.04534602  0.54339666    -0.12400
N2681       N  0.71263127  0.46495558  0.01809455     0.64800
H2682       H  0.77303996  0.47583269  0.02642649     0.12600
N2683       N  0.76504216  0.08008973  0.54909945     0.61400
H2684       H  0.70582587  0.06524842  0.55096458     0.08800
O2685       O  0.61409181  0.09232104  0.99352066    -0.40100
O2686       O  0.60660038  0.05448889  0.95901056    -0.39200
O2687       O  0.66999723  0.00206993  0.60663024    -0.39200
O2688       O  0.66219523  0.95663333  0.58373878    -0.37000
O2689       O  0.76001605  0.10201290  0.52928269    -0.37900
O2690       O  0.76730076  0.08762850  0.57815280    -0.34000
O2691       O  0.70591792  0.46090075  0.98904969    -0.35400
O2692       O  0.71817167  0.44103549  0.03510383    -0.39700
C2693       C  0.83014009  0.15369097  0.00466035    -0.13400
C2694       C  0.84854900  0.16939760  0.52525431     0.17000
C2695       C  0.86993643  0.15306283  0.54514037     0.03300
C2696       C  0.87023695  0.11973375  0.54550278    -0.11900
C2697       C  0.84972905  0.10221717  0.52574563    -0.03000
C2698       C  0.83067757  0.12035073  0.00411241     0.02500
C2699       C  0.84681352  0.20461221  0.52495948     0.09400
N2700       N  0.89211675  0.17025257  0.56422798     0.65700
H2701       H  0.88682386  0.10743910  0.56100278     0.18600
N2702       N  0.80995333  0.10432896  0.98183470     0.76200
H2703       H  0.81362105  0.16661380  0.98962223     0.10100
C2704       C  0.85659529  0.22363228  0.99696603     0.03800
C2705       C  0.85272488  0.25674529  0.99709954    -0.04900
C2706       C  0.84331561  0.27227279  0.52557081    -0.23300
C2707       C  0.83125903  0.25388197  0.55142229     0.13100
C2708       C  0.83381644  0.22068293  0.55098708    -0.12400
N2709       N  0.86961976  0.20810209  0.96956454     0.64800
H2710       H  0.85613601  0.26918663  0.97498167     0.12600
N2711       N  0.81276737  0.26740114  0.57649524     0.61400
H2712       H  0.82467730  0.20722306  0.57090398     0.08800
O2713       O  0.79186226  0.12022389  0.96377889    -0.40100
O2714       O  0.80915239  0.07455373  0.97980942    -0.39200
O2715       O  0.88437570  0.17874348  0.59201355    -0.39200
O2716       O  0.91566979  0.18304304  0.55102734    -0.37000
O2717       O  0.78287195  0.26798426  0.57390046    -0.37900
O2718       O  0.82539567  0.27366428  0.60302933    -0.34000
O2719       O  0.85150515  0.19985252  0.94708446    -0.35400
O2720       O  0.89757461  0.19714407  0.97071522    -0.39700
C2721       C  0.53461698  0.15929769  0.50071887    -0.13400
C2722       C  0.53256826  0.17479850  0.53022782     0.17000
C2723       C  0.53053734  0.15618789  0.55807972     0.03300
C2724       C  0.53007452  0.12301804  0.55582498    -0.11900
C2725       C  0.53133743  0.10733194  0.52629754    -0.03000
C2726       C  0.53448741  0.12606888  0.49830449     0.02500
C2727       C  0.53113447  0.21021286  0.53092511     0.09400
N2728       N  0.03100403  0.16614786  0.59005246     0.65700
H2729       H  0.02989510  0.10522412  0.57827121     0.18600
N2730       N  0.53752342  0.11168139  0.96773546     0.76200
H2731       H  0.53395672  0.17214055  0.97976900     0.10100
C2732       C  0.55498462  0.22890966  0.51660751     0.03800
C2733       C  0.55193697  0.26196781  0.51611742    -0.04900
C2734       C  0.52542195  0.27709709  0.52931404    -0.23300
C2735       C  0.00216799  0.25541735  0.54432441     0.13100
C2736       C  0.00504103  0.22214871  0.54525641    -0.12400
N2737       N  0.58310923  0.21498301  0.50349613     0.64800
H2738       H  0.57069563  0.27601578  0.50568039     0.12600
N2739       N  0.97517564  0.27060116  0.55844180     0.61400
H2740       H  0.98621073  0.20843383  0.55592958     0.08800
O2741       O  0.51682335  0.11742002  0.94675164    -0.40100
O2742       O  0.56554256  0.10713110  0.95833427    -0.39200
O2743       O  0.00510509  0.16740477  0.60508660    -0.39200
O2744       O  0.05670675  0.16759905  0.60549851    -0.37000
O2745       O  0.97777163  0.28362489  0.58540373    -0.37900
O2746       O  0.95064593  0.27572796  0.54186648    -0.34000
O2747       O  0.58560237  0.21281089  0.47360013    -0.35400
O2748       O  0.60803401  0.21454212  0.52024907    -0.39700
C2749       C  0.72447812  0.33177582  0.00131339    -0.13400
C2750       C  0.70611013  0.34977532  0.52264157     0.17000
C2751       C  0.72228672  0.36715886  0.54687066     0.03300
C2752       C  0.75562810  0.36802058  0.54659102    -0.11900
C2753       C  0.77298614  0.35337690  0.52228581    -0.03000
C2754       C  0.75750942  0.33414070  0.00054640     0.02500
C2755       C  0.67102662  0.34555884  0.52293963     0.09400
N2756       N  0.70555261  0.38416923  0.57163552     0.65700
H2757       H  0.76823330  0.38058842  0.56522264     0.18600
N2758       N  0.77485872  0.31582596  0.97769929     0.76200
H2759       H  0.71300200  0.31563879  0.98490466     0.10100
C2760       C  0.65241482  0.34746209  0.99602690     0.03800
C2761       C  0.61940013  0.34655593  0.99846210    -0.04900
C2762       C  0.60414085  0.34718990  0.52788759    -0.23500
C2763       C  0.62328505  0.34114622  0.55514669     0.13100
C2764       C  0.65614589  0.33827549  0.55181617    -0.12400
N2765       N  0.66584243  0.35245788  0.96527398     0.64800
H2766       H  0.60537595  0.34720846  0.97680471     0.12600
N2767       N  0.61072043  0.34050442  0.58677496     0.61400
H2768       H  0.67035183  0.33331314  0.57282306     0.08800
O2769       O  0.78001021  0.32746719  0.95054461    -0.40100
O2770       O  0.77746843  0.28624621  0.98152606    -0.39200
O2771       O  0.71899237  0.38961060  0.59801812    -0.39200
O2772       O  0.67935949  0.39774185  0.56577444    -0.37000
O2773       O  0.61042607  0.31445332  0.60153964    -0.37900
O2774       O  0.61040845  0.36590285  0.60273161    -0.34000
O2775       O  0.66539905  0.32987513  0.94552597    -0.35400
O2776       O  0.66767205  0.38045318  0.95492643    -0.39700
C2777       C  0.50702907  0.33985349  0.72510216    -0.13400
C2778       C  0.53307613  0.35339518  0.70979942     0.17000
C2779       C  0.55860749  0.36456129  0.72821444     0.03300
C2780       C  0.55647857  0.36449629  0.76167621    -0.11900
C2781       C  0.52986379  0.35162052  0.77714080    -0.03000
C2782       C  0.50591154  0.33710864  0.75845707     0.02500
C2783       C  0.53358625  0.35434996  0.67445098     0.09400
N2784       N  0.58774125  0.37313417  0.71316631     0.65700
H2785       H  0.57612810  0.37347701  0.77569443     0.18600
N2786       N  0.48225159  0.31693081  0.77229438     0.76200
H2787       H  0.48795116  0.33016373  0.71078197     0.10100
C2788       C  0.53381505  0.32622431  0.65641430     0.03800
C2789       C  0.53107717  0.32753794  0.62332786    -0.04900
C2790       C  0.52987063  0.35656161  0.60709961    -0.23300
C2791       C  0.53267280  0.38501429  0.62508327     0.13100
C2792       C  0.53315659  0.38357924  0.65856616    -0.12400
N2793       N  0.53885111  0.29613366  0.67116709     0.64800
H2794       H  0.53057050  0.30539093  0.61026172     0.12600
N2795       N  0.04114117  0.41183995  0.60932078     0.61400
H2796       H  0.03761248  0.40319133  0.67150909     0.08800
O2797       O  0.47020927  0.29490120  0.75590467    -0.40100
O2798       O  0.47567292  0.31853537  0.80152330    -0.39200
O2799       O  0.59236368  0.40157380  0.70528187    -0.39200
O2800       O  0.60548626  0.35160682  0.70192893    -0.37000
O2801       O  0.06915889  0.41771701  0.60066148    -0.37900
O2802       O  0.02246474  0.43486023  0.61414134    -0.34000
O2803       O  0.51572807  0.27755604  0.67426538    -0.35400
O2804       O  0.56676368  0.28512417  0.67273300    -0.39700
C2805       C  0.99992199  0.03918686  0.65578573    -0.13400
C2806       C  0.52644869  0.02853383  0.67231235     0.17000
C2807       C  0.55238195  0.01670896  0.65436109     0.03300
C2808       C  0.55142443  0.01750786  0.62111142    -0.11900
C2809       C  0.52521786  0.02984299  0.60486129    -0.03000
C2810       C  0.99926289  0.03885835  0.62218440     0.02500
C2811       C  0.52691066  0.02810130  0.70793937     0.09400
N2812       N  0.58070286  0.00522894  0.66931288     0.65700
H2813       H  0.57160548  0.00869003  0.60792271     0.18600
N2814       N  0.97266963  0.05231789  0.60564655     0.76200
H2815       H  0.97957288  0.04834721  0.66870724     0.10100
C2816       C  0.52257608  0.05599049  0.72618131     0.03800
C2817       C  0.52387768  0.05471556  0.75948384    -0.04900
C2818       C  0.52920748  0.02613712  0.77564876    -0.23300
C2819       C  0.53460903  0.49867548  0.75733386     0.13100
C2820       C  0.53260394  0.50038429  0.72393875    -0.12400
N2821       N  0.51838028  0.08621074  0.71142271     0.64800
H2822       H  0.52123174  0.07658464  0.77276220     0.12600
N2823       N  0.54464433  0.46934309  0.77135854     0.61400
H2824       H  0.53625822  0.47898129  0.71003367     0.08800
O2825       O  0.94852223  0.03568147  0.59996200    -0.40100
O2826       O  0.97493094  0.07939407  0.59317606    -0.39200
O2827       O  0.58614298  0.97575514  0.66941736    -0.39200
O2828       O  0.60367565  0.02399211  0.67271367    -0.37000
O2829       O  0.57376927  0.46544359  0.77743971    -0.37900
O2830       O  0.52758129  0.44511073  0.76773347    -0.34000
O2831       O  0.99307895  0.09905186  0.71176111    -0.35400
O2832       O  0.54233109  0.10361406  0.70768956    -0.39700
C2833       C  0.99466396  0.15310233  0.84260811    -0.13400
C2834       C  0.52140233  0.17194972  0.85510606     0.17000
C2835       C  0.54792813  0.15491453  0.86714148     0.03300
C2836       C  0.54782841  0.12178304  0.86737370    -0.11900
C2837       C  0.52300371  0.10489845  0.85370984    -0.03000
C2838       C  0.99579612  0.11971375  0.84181960     0.02500
C2839       C  0.52081403  0.20739114  0.85569355     0.09400
N2840       N  0.57591687  0.17080909  0.87774299     0.65700
H2841       H  0.56753343  0.10897689  0.87795341     0.18600
N2842       N  0.96931728  0.10241363  0.82967889     0.76200
H2843       H  0.97345985  0.16527105  0.83441260     0.10100
C2844       C  0.51482823  0.22566896  0.82811081     0.03800
C2845       C  0.51829643  0.25862860  0.82909624    -0.04900
C2846       C  0.52647999  0.27441012  0.85727747    -0.23300
C2847       C  0.53175112  0.25631289  0.88528783     0.13100
C2848       C  0.52845249  0.22324722  0.88417995    -0.12400
N2849       N  0.00433369  0.21071325  0.79769747     0.64800
H2850       H  0.01394228  0.27115028  0.80693397     0.12600
N2851       N  0.54200363  0.27044707  0.91463512     0.61400
H2852       H  0.53268023  0.20972563  0.90572941     0.08800
O2853       O  0.94427778  0.10045722  0.84596651    -0.40100
O2854       O  0.97282982  0.08475442  0.80566193    -0.39200
O2855       O  0.58569900  0.16667051  0.90589142    -0.39200
O2856       O  0.59433786  0.18267630  0.85738720    -0.37000
O2857       O  0.52307019  0.27100016  0.93783646    -0.37900
O2858       O  0.57130118  0.27112652  0.92072076    -0.34000
O2859       O  0.97535229  0.21176144  0.78998740    -0.35400
O2860       O  0.02484150  0.20718388  0.77608679    -0.39700
C2861       C  0.88361998  0.03561680  0.72322323    -0.13400
C2862       C  0.85543963  0.02865024  0.70665983     0.17000
C2863       C  0.82831134  0.52563229  0.72461638     0.03300
C2864       C  0.82990852  0.52444720  0.75784017    -0.11900
C2865       C  0.85708395  0.02968071  0.77457637    -0.03000
C2866       C  0.88451674  0.03715235  0.75668974     0.02500
C2867       C  0.85548185  0.02739284  0.67089130     0.09400
N2868       N  0.79775349  0.52346743  0.70992333     0.65700
H2869       H  0.80867438  0.51892746  0.77066540     0.18600
N2870       N  0.91287707  0.04837993  0.77152437     0.76200
H2871       H  0.90524955  0.04013396  0.71017742     0.10100
C2872       C  0.86959965  0.05141282  0.65208147     0.03800
C2873       C  0.86902563  0.04922074  0.61881557    -0.04900
C2874       C  0.85456248  0.02373657  0.60350400    -0.23300
C2875       C  0.83919895  0.50198485  0.62198614     0.13100
C2876       C  0.84058172  0.50375574  0.65533970    -0.12400
N2877       N  0.88309399  0.07919509  0.66596251     0.64800
H2878       H  0.87935552  0.06803840  0.60477994     0.12600
N2879       N  0.82106549  0.47757670  0.60698867     0.61400
H2880       H  0.82942505  0.48531162  0.66911405     0.08800
O2881       O  0.91791666  0.07780413  0.77100089    -0.40100
O2882       O  0.93648310  0.02989744  0.77352248    -0.39200
O2883       O  0.78380987  0.49707695  0.70970347    -0.39200
O2884       O  0.78139879  0.54847631  0.70684300    -0.37000
O2885       O  0.79279766  0.48332776  0.59866298    -0.37900
O2886       O  0.83489201  0.45306845  0.59648450    -0.34000
O2887       O  0.91289478  0.08223047  0.66565107    -0.35400
O2888       O  0.86595188  0.10374530  0.66836396    -0.39700
C2889       C  0.72633548  0.03783030  0.88177240    -0.13400
C2890       C  0.71044918  0.03554396  0.85255742     0.17000
C2891       C  0.72806591  0.03308970  0.82433014     0.03300
C2892       C  0.76099821  0.03290735  0.82567411    -0.11900
C2893       C  0.77741126  0.03327019  0.85463935    -0.03000
C2894       C  0.75967383  0.03599134  0.88362971     0.02500
C2895       C  0.67546221  0.03434760  0.85198562     0.09400
N2896       N  0.71302487  0.02882192  0.79410819     0.65700
H2897       H  0.77373778  0.03130846  0.80356250     0.18600
N2898       N  0.77405070  0.03656261  0.91490673     0.76200
H2899       H  0.71241815  0.04014655  0.90336590     0.10100
C2900       C  0.65957169  0.50980823  0.86483294     0.03800
C2901       C  0.62663618  0.50827494  0.86081724    -0.04900
C2902       C  0.60779180  0.03388082  0.85104679    -0.23300
C2903       C  0.62531648  0.06076161  0.83974141     0.13100
C2904       C  0.65859465  0.05979439  0.83920017    -0.12400
N2905       N  0.67559576  0.48485021  0.88169453     0.64800
H2906       H  0.61585533  0.48542316  0.86293358     0.12600
N2907       N  0.61115064  0.08966044  0.82881937     0.61400
H2908       H  0.67147884  0.07996066  0.82996396     0.08800
O2909       O  0.75814977  0.02847835  0.93902808    -0.40100
O2910       O  0.80224770  0.04545617  0.91897684    -0.39200
O2911       O  0.71246888  0.05167350  0.77475946    -0.39200
O2912       O  0.70969963  0.00098733  0.78355152    -0.37000
O2913       O  0.61514175  0.11409043  0.84572769    -0.37900
O2914       O  0.60837769  0.09347453  0.79908895    -0.34000
O2915       O  0.66406703  0.47481854  0.90749704    -0.35400
O2916       O  0.70221786  0.47443557  0.87246409    -0.39700
C2917       C  0.87567198  0.36120756  0.71785479    -0.13400
C2918       C  0.84597897  0.35560293  0.70431510     0.17000
C2919       C  0.81987458  0.35014469  0.72447831     0.03300
C2920       C  0.82407251  0.35148005  0.75749940    -0.11900
C2921       C  0.85419508  0.35551695  0.77146767    -0.03000
C2922       C  0.88069288  0.35915991  0.75071175     0.02500
C2923       C  0.84434678  0.35395511  0.66909294     0.09400
N2924       N  0.78993115  0.33972022  0.71240449     0.65700
H2925       H  0.80347442  0.34756651  0.77225488     0.18600
N2926       N  0.91297737  0.35734298  0.76137300     0.76200
H2927       H  0.89581858  0.36472270  0.70225012     0.10100
C2928       C  0.82633051  0.37597130  0.65130489     0.03800
C2929       C  0.82739290  0.37498932  0.61786332    -0.04900
C2930       C  0.84832174  0.35412287  0.60218340    -0.23300
C2931       C  0.86840493  0.33426213  0.62001091     0.13100
C2932       C  0.86542304  0.33336131  0.65311725    -0.12400
N2933       N  0.80989721  0.40141387  0.66690358     0.64800
H2934       H  0.81299436  0.39142085  0.60414834     0.12600
N2935       N  0.89372341  0.31712010  0.60497923     0.61400
H2936       H  0.88084172  0.31765338  0.66661663     0.08800
O2937       O  0.93491034  0.37029716  0.74566979    -0.40100
O2938       O  0.91999971  0.34174952  0.78584634    -0.39200
O2939       O  0.78626744  0.31041124  0.70760783    -0.39200
O2940       O  0.76562044  0.35669818  0.71733855    -0.37000
O2941       O  0.92034350  0.33024654  0.60165031    -0.37900
O2942       O  0.88828435  0.29137631  0.59069691    -0.34000
O2943       O  0.82543514  0.42277609  0.68100929    -0.35400
O2944       O  0.78000062  0.40142738  0.66856334    -0.39700
C2945       C  0.65824521  0.31972091  0.84760778    -0.13400
C2946       C  0.67500366  0.34821342  0.84980149     0.17000
C2947       C  0.65704541  0.37673781  0.85160548     0.03300
C2948       C  0.62387266  0.37619097  0.85143119    -0.11900
C2949       C  0.60730731  0.34768105  0.85226209    -0.03000
C2950       C  0.62503499  0.31892996  0.84990192     0.02500
C2951       C  0.71075556  0.34802573  0.84886965     0.09400
N2952       N  0.67181991  0.40653939  0.85659489     0.65700
H2953       H  0.61102914  0.39853385  0.85143036     0.18600
N2954       N  0.61060550  0.28843092  0.85184952     0.76200
H2955       H  0.67082034  0.29757202  0.84420836     0.10100
C2956       C  0.72985453  0.32568219  0.86577255     0.03800
C2957       C  0.76304556  0.32789378  0.86506161    -0.04900
C2958       C  0.77817447  0.35176556  0.84798658    -0.23300
C2959       C  0.75954530  0.37345131  0.83031387     0.13100
C2960       C  0.72637120  0.37088573  0.83035725    -0.12400
N2961       N  0.71649392  0.30067005  0.88418458     0.64800
H2962       H  0.77717179  0.31092792  0.87843343     0.12600
N2963       N  0.77354659  0.39880964  0.81285103     0.61400
H2964       H  0.71277747  0.38715227  0.81571268     0.08800
O2965       O  0.60616265  0.27309900  0.82638089    -0.40100
O2966       O  0.61481575  0.27288992  0.87714192    -0.39200
O2967       O  0.66916455  0.42765414  0.83545270    -0.39200
O2968       O  0.67818470  0.41452555  0.88484895    -0.37000
O2969       O  0.77244789  0.39806415  0.78280730    -0.37900
O2970       O  0.77658626  0.42531168  0.82650668    -0.34000
O2971       O  0.71691335  0.27294810  0.87274597    -0.35400
O2972       O  0.71535211  0.30390579  0.91403020    -0.39700
C2973       C  0.84287231  0.15805712  0.87215066    -0.13400
C2974       C  0.85816593  0.17269260  0.84644401     0.17000
C2975       C  0.87374553  0.15323669  0.82366646     0.03300
C2976       C  0.87289055  0.12018418  0.82665921    -0.11900
C2977       C  0.85733956  0.10586479  0.85206068    -0.03000
C2978       C  0.84216970  0.12501953  0.87480611     0.02500
C2979       C  0.85801163  0.20801701  0.84468715     0.09400
N2980       N  0.88899168  0.16623822  0.79636397     0.65700
H2981       H  0.88380027  0.10555216  0.80860591     0.18600
N2982       N  0.82462749  0.11108165  0.89989346     0.76200
H2983       H  0.83129889  0.17232237  0.89026158     0.10100
C2984       C  0.82949903  0.22577972  0.84647214     0.03800
C2985       C  0.83029943  0.25886240  0.84753995    -0.04900
C2986       C  0.85896780  0.27536132  0.84694959    -0.23300
C2987       C  0.88788518  0.25769450  0.84458502     0.13100
C2988       C  0.88687775  0.22431221  0.84376681    -0.12400
N2989       N  0.79922969  0.21076399  0.84633361     0.64800
H2990       H  0.80803225  0.27178105  0.84901351     0.12600
N2991       N  0.91829225  0.27274950  0.84243119     0.61400
H2992       H  0.90887491  0.21087003  0.84264280     0.08800
O2993       O  0.79520438  0.10678654  0.89633519    -0.40100
O2994       O  0.83934999  0.09754153  0.92228821    -0.39200
O2995       O  0.91892743  0.16554180  0.79510421    -0.39200
O2996       O  0.87346783  0.16804323  0.77066965    -0.37000
O2997       O  0.92100080  0.29896822  0.82857807    -0.37900
O2998       O  0.94301853  0.25890479  0.85250857    -0.34000
O2999       O  0.78348576  0.20998055  0.87187108    -0.35400
O3000       O  0.78477036  0.20781912  0.82013878    -0.39700
C3001       C  0.86821907  0.86276311  0.36238661     0.46400
H3002       H  0.88237195  0.87741751  0.37846858    -0.02600
C3003       C  0.83548674  0.82778250  0.32539608     0.46500
H3004       H  0.82111472  0.81215829  0.30978057    -0.02600
C3005       C  0.83261013  0.86806455  0.36762725    -0.16300
C3006       C  0.87458460  0.87030815  0.32718691    -0.16100
C3007       C  0.87557140  0.82750392  0.36768945    -0.16400
C3008       C  0.81476340  0.84951028  0.34771081    -0.16400
C3009       C  0.85726921  0.85133982  0.30681597    -0.16000
C3010       C  0.85875481  0.80847267  0.34740211    -0.16300
C3011       C  0.86647419  0.51421185  0.36461922     0.46400
H3012       H  0.88175800  0.99927996  0.38000995    -0.02600
C3013       C  0.83345822  0.55099923  0.32925247     0.46500
H3014       H  0.81921064  0.56718291  0.31391864    -0.02600
C3015       C  0.87383721  0.50895002  0.32933057    -0.16300
C3016       C  0.83095372  0.50861760  0.36933968    -0.16100
C3017       C  0.87277420  0.54920994  0.37174457    -0.16400
C3018       C  0.85641317  0.52857740  0.31001256    -0.16400
C3019       C  0.81294586  0.52943552  0.35180142    -0.16000
C3020       C  0.85569947  0.56902124  0.35238896    -0.16300
C3021       C  0.51835090  0.51653253  0.36625291     0.46400
H3022       H  0.00379994  0.99879032  0.38148849    -0.02600
C3023       C  0.55004074  0.55288602  0.33018807     0.46500
H3024       H  0.56198422  0.56874191  0.31360740    -0.02600
C3025       C  0.55440935  0.51272924  0.37263036    -0.16300
C3026       C  0.51250997  0.50923525  0.33090965    -0.16100
C3027       C  0.50946958  0.55130458  0.37167862    -0.16400
C3028       C  0.57217360  0.53293365  0.35286957    -0.16400
C3029       C  0.53015191  0.52796399  0.31128927    -0.16000
C3030       C  0.52618735  0.57094111  0.35247043    -0.16300
C3031       C  0.51865439  0.86606312  0.36654725     0.46400
H3032       H  0.00385674  0.87752926  0.38123109    -0.02600
C3033       C  0.55148083  0.82880266  0.33151755     0.46500
H3034       H  0.56476079  0.81293462  0.31532420    -0.02600
C3035       C  0.51160632  0.87161807  0.33107271    -0.16300
C3036       C  0.55463273  0.87129911  0.37147249    -0.16100
C3037       C  0.51198691  0.83123528  0.37407425    -0.16400
C3038       C  0.52980616  0.85214321  0.31214974    -0.16400
C3039       C  0.57264007  0.85043033  0.35293797    -0.16000
C3040       C  0.52960052  0.81095973  0.35564996    -0.16300
C3041       C  0.51520173  0.86470487  0.01649274     0.46400
H3042       H  0.00175306  0.87767888  0.50042508    -0.02600
C3043       C  0.54921620  0.82934214  0.05225897     0.46500
H3044       H  0.56349255  0.81301696  0.06711301    -0.02600
C3045       C  0.55082096  0.86910073  0.00999264    -0.16300
C3046       C  0.50993293  0.87236321  0.05185134    -0.16100
C3047       C  0.50736897  0.82956710  0.01184996    -0.16400
C3048       C  0.56931063  0.84977545  0.02926112    -0.16400
C3049       C  0.52876840  0.85394981  0.07133842    -0.16000
C3050       C  0.52577609  0.81056324  0.03079012    -0.16300
C3051       C  0.86301885  0.86312836  0.01269372     0.46400
H3052       H  0.87977222  0.87667828  0.49767550    -0.02600
C3053       C  0.82590380  0.83135447  0.04790309     0.46500
H3054       H  0.80863113  0.82067776  0.06388043    -0.02600
C3055       C  0.82794952  0.87075145  0.00592537    -0.16300
C3056       C  0.86739575  0.82709180  0.00722820    -0.16100
C3057       C  0.86942195  0.86970714  0.04790730    -0.16400
C3058       C  0.80821297  0.85340431  0.02445947    -0.16400
C3059       C  0.84684883  0.80906859  0.02602037    -0.16000
C3060       C  0.84923888  0.85303158  0.06679048    -0.16300
C3061       C  0.51526486  0.51551573  0.01554487     0.46400
H3062       H  0.00112983  0.99851834  0.50018095    -0.02600
C3063       C  0.55036846  0.55028443  0.05065624     0.46500
H3064       H  0.56589102  0.56493362  0.06615485    -0.02600
C3065       C  0.50764862  0.51051763  0.05074983    -0.16300
C3066       C  0.55058655  0.50813265  0.01079975    -0.16100
C3067       C  0.51031349  0.55100060  0.00851658    -0.16400
C3068       C  0.52621429  0.52933806  0.06977935    -0.16400
C3069       C  0.56954404  0.52674617  0.02924184    -0.16000
C3070       C  0.52963716  0.57009396  0.02665048    -0.16300
C3071       C  0.86317730  0.51435286  0.01419373     0.46400
H3072       H  0.87842346  0.99838115  0.49819614    -0.02600
C3073       C  0.82996206  0.54948641  0.05105911     0.46500
H3074       H  0.81694897  0.56455985  0.06806964    -0.02600
C3075       C  0.82739877  0.50925573  0.00852614    -0.16300
C3076       C  0.86969014  0.50708663  0.04917231    -0.16100
C3077       C  0.87009185  0.54960701  0.00920346    -0.16400
C3078       C  0.80905465  0.52795158  0.02909319    -0.16400
C3079       C  0.85227869  0.52603359  0.06891630    -0.16000
C3080       C  0.85172901  0.56859616  0.02816499    -0.16300
O3081       O  0.90439382  0.96762748  0.03234868    -0.72000
O3082       O  0.97479165  0.90988672  0.03397994    -0.73000
O3083       O  0.91034202  0.90341407  0.03213335    -0.61600
O3084       O  0.96847929  0.97374419  0.03334059    -0.70000
O3085       O  0.97468754  0.97348714  0.08533446    -0.69600
O3086       O  0.90223637  0.90405459  0.08389390    -0.60800
O3087       O  0.97307897  0.90240104  0.08574889    -0.73300
O3088       O  0.90417434  0.97455214  0.08439365    -0.72100
Cu3089     Cu  0.93952584  0.93859599  0.03191943     1.04600
Cu3090     Cu  0.93852999  0.93857019  0.08746311     1.04300
C3091       C  0.89358546  0.98192530  0.05661421     0.94200
C3092       C  0.98514333  0.89567390  0.05845659     0.93300
C3093       C  0.89525139  0.89315949  0.05603403     0.85500
C3094       C  0.98230679  0.98461934  0.05782090     0.91800
O3095       O  0.90791687  0.97508504  0.29441425    -0.72000
O3096       O  0.97852094  0.90327195  0.29517626    -0.73000
O3097       O  0.90735646  0.90616383  0.29406641    -0.61600
O3098       O  0.97807166  0.97437540  0.29570491    -0.70000
O3099       O  0.97678348  0.96847462  0.34773096    -0.69600
O3100       O  0.90914130  0.90884938  0.34622478    -0.60800
O3101       O  0.97326492  0.90454813  0.34724160    -0.73300
O3102       O  0.91265895  0.97284832  0.34653816    -0.72100
Cu3103     Cu  0.94307064  0.93970400  0.29228101     1.04600
Cu3104     Cu  0.94288730  0.93873309  0.34798163     1.04300
C3105       C  0.89959387  0.98490908  0.32216425     0.94200
C3106       C  0.98672057  0.89286151  0.32291476     0.93300
C3107       C  0.89767558  0.89653571  0.32126308     0.85500
C3108       C  0.98839638  0.98184506  0.32352126     0.91800
O3109       O  0.58760596  0.90626799  0.47774839    -0.72000
O3110       O  0.58924311  0.97796081  0.40727402    -0.73000
O3111       O  0.58694929  0.97663773  0.47755200    -0.61600
O3112       O  0.58994851  0.90520836  0.40663103    -0.70000
O3113       O  0.53837447  0.91197295  0.40553925    -0.69600
O3114       O  0.53510804  0.97092857  0.47457582    -0.60800
O3115       O  0.53764547  0.97623669  0.41033405    -0.73300
O3116       O  0.53602952  0.90668878  0.46984642    -0.72100
Cu3117     Cu  0.59103835  0.94149519  0.44226678     1.04600
Cu3118     Cu  0.53584238  0.94145289  0.44001453     1.04300
C3119       C  0.55990889  0.89550918  0.48454873     0.94200
C3120       C  0.56201127  0.98857768  0.39794875     0.93300
C3121       C  0.55887666  0.98451413  0.48679775     0.85500
C3122       C  0.56261493  0.89733458  0.39533654     0.91800
O3123       O  0.90653100  0.53190580  0.41172174    -0.72000
O3124       O  0.97533859  0.53203574  0.47016891    -0.73000
O3125       O  0.91139987  0.53200070  0.47569328    -0.61600
O3126       O  0.97011887  0.53067028  0.40648437    -0.70000
O3127       O  0.97660847  0.58239270  0.40709865    -0.69600
O3128       O  0.90341766  0.58363985  0.47508849    -0.60800
O3129       O  0.97340117  0.58343540  0.47843731    -0.73300
O3130       O  0.90685328  0.58367720  0.40483615    -0.72100
Cu3131     Cu  0.94081426  0.53059529  0.44111616     1.04600
Cu3132     Cu  0.94013493  0.58592498  0.44140385     1.04300
C3133       C  0.89630897  0.55620474  0.39724792     0.94200
C3134       C  0.98542809  0.55616827  0.48484609     0.93300
C3135       C  0.89630998  0.55603629  0.48575613     0.85500
C3136       C  0.98410618  0.55485412  0.39593399     0.91800
O3137       O  0.79333705  0.97379925  0.47101342    -0.72000
O3138       O  0.79548336  0.90214926  0.39986976    -0.73000
O3139       O  0.79420604  0.90276344  0.47078737    -0.61600
O3140       O  0.79518271  0.97308780  0.39987537    -0.70000
O3141       O  0.84696768  0.96936091  0.40490982    -0.69600
O3142       O  0.84625971  0.90709107  0.46965161    -0.60800
O3143       O  0.84721030  0.90536945  0.40574445    -0.73300
O3144       O  0.84516565  0.97077170  0.46925998    -0.72100
Cu3145     Cu  0.79191370  0.93794453  0.43530953     1.04600
Cu3146     Cu  0.84732483  0.93815051  0.43733767     1.04300
C3147       C  0.82052660  0.98297837  0.48159151     0.94200
C3148       C  0.82358981  0.89276537  0.39213662     0.93300
C3149       C  0.82184335  0.89419127  0.48091329     0.85500
C3150       C  0.82312742  0.98242212  0.39207173     0.91800
O3151       O  0.97748058  0.79256341  0.47531743    -0.72000
O3152       O  0.90545552  0.79238784  0.40552380    -0.73000
O3153       O  0.97560487  0.79319475  0.40416408    -0.61600
O3154       O  0.90768784  0.79150903  0.47688427    -0.70000
O3155       O  0.90352586  0.84217188  0.46656873    -0.69600
O3156       O  0.97810418  0.84440265  0.41389023    -0.60800
O3157       O  0.91472025  0.84355087  0.40323100    -0.73300
O3158       O  0.96733623  0.84375223  0.47789486    -0.72100
Cu3159     Cu  0.94161669  0.78969111  0.44042810     1.04600
Cu3160     Cu  0.94087694  0.84452526  0.44048678     1.04300
C3161       C  0.98307494  0.81995879  0.48757235     0.94200
C3162       C  0.89973161  0.81971918  0.39303762     0.93300
C3163       C  0.98787277  0.82042390  0.39842145     0.85500
C3164       C  0.89407778  0.81835741  0.48214174     0.91800
C3165       C  0.65692304  0.53726334  0.50891655    -0.13400
C3166       C  0.67146155  0.51966846  0.03231332     0.17000
C3167       C  0.65265961  0.50492272  0.05569587     0.03300
C3168       C  0.61948090  0.50647189  0.05345153    -0.11900
C3169       C  0.60462055  0.52416339  0.02944616    -0.03000
C3170       C  0.62396604  0.54078461  0.50766898     0.02500
C3171       C  0.70649328  0.52086581  0.03420541     0.09400
N3172       N  0.66661296  0.49045682  0.08310572     0.65700
H3173       H  0.60536133  0.49422107  0.07090999     0.18600
N3174       N  0.61087290  0.56196040  0.48472272     0.76200
H3175       H  0.67127963  0.54931362  0.49133075     0.10100
C3176       C  0.72624471  0.99486415  0.03018534     0.03800
C3177       C  0.75925137  0.99786776  0.02948363    -0.04900
C3178       C  0.77356944  0.52668895  0.03228581    -0.23300
C3179       C  0.75380908  0.55344867  0.03948627     0.13100
C3180       C  0.72077148  0.54999636  0.04043118    -0.12400
N3181       N  0.71177629  0.96597602  0.50465571     0.64800
H3182       H  0.77237009  0.97301531  0.52245480     0.12600
N3183       N  0.76585468  0.58437225  0.04621468     0.61400
H3184       H  0.70599422  0.57055938  0.04552797     0.08800
O3185       O  0.61564867  0.59122479  0.48865583    -0.40100
O3186       O  0.60526283  0.55167299  0.45701618    -0.39200
O3187       O  0.66831978  0.50635120  0.10856731    -0.39200
O3188       O  0.66764028  0.46062827  0.08467765    -0.37000
O3189       O  0.76073685  0.60594394  0.02604484    -0.37900
O3190       O  0.76840086  0.59247078  0.07509149    -0.34000
O3191       O  0.68790949  0.97064727  0.48695584    -0.35400
O3192       O  0.72803995  0.94108440  0.50028449    -0.39700
C3193       C  0.83286397  0.65254697  0.50294262    -0.13400
C3194       C  0.85059803  0.67058221  0.02595939     0.17000
C3195       C  0.87148575  0.65410618  0.04620529     0.03300
C3196       C  0.87150111  0.62083800  0.04642069    -0.11900
C3197       C  0.85117979  0.60367609  0.02619233    -0.03000
C3198       C  0.83257228  0.61923781  0.50285181     0.02500
C3199       C  0.84901326  0.70564328  0.02565999     0.09400
N3200       N  0.89346624  0.67105772  0.06573691     0.65700
H3201       H  0.88766278  0.60832116  0.06218834     0.18600
N3202       N  0.81198054  0.60341848  0.48032349     0.76200
H3203       H  0.81772779  0.66564995  0.48665256     0.10100
C3204       C  0.86004143  0.72204230  0.49734680     0.03800
C3205       C  0.85532806  0.75498389  0.49673849    -0.04900
C3206       C  0.84367754  0.77300375  0.02513079    -0.23300
C3207       C  0.83106985  0.75469087  0.05075770     0.13100
C3208       C  0.83458076  0.72161555  0.05094311    -0.12400
N3209       N  0.87658304  0.70670855  0.47180232     0.64800
H3210       H  0.85935964  0.76707582  0.47457815     0.12600
N3211       N  0.81064749  0.76792479  0.07442163     0.61400
H3212       H  0.82481074  0.70813413  0.07054109     0.08800
O3213       O  0.79388745  0.61948412  0.46241904    -0.40100
O3214       O  0.81075557  0.57364529  0.47845263    -0.39200
O3215       O  0.88495483  0.68051539  0.09297993    -0.39200
O3216       O  0.91799545  0.68262937  0.05319865    -0.37000
O3217       O  0.78117372  0.76968522  0.06893159    -0.37900
O3218       O  0.82083131  0.77278096  0.10228962    -0.34000
O3219       O  0.86140627  0.69686045  0.44783258    -0.35400
O3220       O  0.90500018  0.69785863  0.47591591    -0.39700
C3221       C  0.53349768  0.65794288  0.00112737    -0.13400
C3222       C  0.53233497  0.67314374  0.03082531     0.17000
C3223       C  0.53047659  0.65429262  0.05850122     0.03300
C3224       C  0.52950866  0.62116725  0.05593113    -0.11900
C3225       C  0.53023477  0.60570387  0.02625327    -0.03000
C3226       C  0.53278199  0.62473059  0.99833918     0.02500
C3227       C  0.53138488  0.70855485  0.03187253     0.09400
N3228       N  0.03041588  0.66721610  0.08960388     0.65700
H3229       H  0.02858897  0.60625395  0.07806978     0.18600
N3230       N  0.53620348  0.61355539  0.46779903     0.76200
H3231       H  0.53369834  0.67412257  0.48019807     0.10100
C3232       C  0.55564548  0.72705050  0.01802068     0.03800
C3233       C  0.55284805  0.76014438  0.01741257    -0.04900
C3234       C  0.52611882  0.77549959  0.02993859    -0.23300
C3235       C  0.00100919  0.75620813  0.04327364     0.13100
C3236       C  0.00365246  0.72295529  0.04433820    -0.12400
N3237       N  0.58377017  0.71283671  0.00522442     0.64800
H3238       H  0.57187330  0.77402871  0.00724512     0.12600
N3239       N  0.97414175  0.77162630  0.05736145     0.61400
H3240       H  0.98466384  0.70935975  0.05489115     0.08800
O3241       O  0.51597618  0.62075148  0.44677441    -0.40100
O3242       O  0.56382484  0.60672276  0.45855040    -0.39200
O3243       O  0.00509639  0.66779208  0.10562565    -0.39200
O3244       O  0.05663737  0.66973152  0.10398075    -0.37000
O3245       O  0.97677789  0.78434076  0.08446923    -0.37900
O3246       O  0.94973604  0.77717318  0.04073257    -0.34000
O3247       O  0.58683568  0.71116826  0.97535290    -0.35400
O3248       O  0.60831837  0.71149411  0.02248968    -0.39700
C3249       C  0.72483099  0.82909769  0.50335612    -0.13400
C3250       C  0.70649580  0.85019307  0.02316204     0.17000
C3251       C  0.72272396  0.86872146  0.04644879     0.03300
C3252       C  0.75605891  0.86987652  0.04574695    -0.11900
C3253       C  0.77332734  0.85379009  0.02230530    -0.03000
C3254       C  0.75800467  0.82913151  0.50345391     0.02500
C3255       C  0.67144063  0.84616019  0.02358106     0.09400
N3256       N  0.70604096  0.88663359  0.07062309     0.65700
H3257       H  0.76875169  0.88357622  0.06349727     0.18600
N3258       N  0.77458678  0.80525618  0.48576285     0.76200
H3259       H  0.71247047  0.81044060  0.49070233     0.10100
C3260       C  0.65316390  0.84936751  0.49427394     0.03800
C3261       C  0.62019596  0.84858122  0.49743813    -0.04900
C3262       C  0.60453058  0.84689333  0.02806481    -0.23500
C3263       C  0.62358411  0.84191311  0.05560871     0.13100
C3264       C  0.65650652  0.83942385  0.05255405    -0.12400
N3265       N  0.66622243  0.85137768  0.46302811     0.64800
H3266       H  0.60572921  0.84775317  0.47606850     0.12600
N3267       N  0.61083544  0.84211204  0.08717512     0.61400
H3268       H  0.67067830  0.83520440  0.07374864     0.08800
O3269       O  0.78134096  0.81054484  0.45699227    -0.40100
O3270       O  0.77419679  0.77698666  0.49553637    -0.39200
O3271       O  0.71999377  0.89422749  0.09618162    -0.39200
O3272       O  0.67938289  0.89915826  0.06458949    -0.37000
O3273       O  0.61035829  0.81642594  0.10255507    -0.37900
O3274       O  0.61094757  0.86784497  0.10258063    -0.34000
O3275       O  0.66587636  0.82694933  0.44565443    -0.35400
O3276       O  0.66790930  0.87823173  0.44996637    -0.39700
C3277       C  0.50805787  0.83962822  0.22477136    -0.13400
C3278       C  0.53339404  0.85434775  0.20938539     0.17000
C3279       C  0.55800836  0.86750665  0.22775946     0.03300
C3280       C  0.55574357  0.86766279  0.26120246    -0.11900
C3281       C  0.53002862  0.85315356  0.27669898    -0.03000
C3282       C  0.50695096  0.83722223  0.25810821     0.02500
C3283       C  0.53400540  0.85468998  0.17403588     0.09400
N3284       N  0.58650434  0.87805184  0.21275733     0.65700
H3285       H  0.57471262  0.87801976  0.27519813     0.18600
N3286       N  0.48413300  0.81621776  0.27208107     0.76200
H3287       H  0.48950222  0.82885114  0.21055870     0.10100
C3288       C  0.53410362  0.82623128  0.15647239     0.03800
C3289       C  0.53154601  0.82700460  0.12337348    -0.04900
C3290       C  0.53046893  0.85576185  0.10673298    -0.23300
C3291       C  0.53325285  0.88451429  0.12417021     0.13100
C3292       C  0.53362814  0.88365633  0.15765689    -0.12400
N3293       N  0.53848310  0.79629597  0.17174744     0.64800
H3294       H  0.53091380  0.80467015  0.11062339     0.12600
N3295       N  0.03905963  0.91245069  0.10904087     0.61400
H3296       H  0.03574962  0.90313338  0.17105887     0.08800
O3297       O  0.47369108  0.79304718  0.25617046    -0.40100
O3298       O  0.47669083  0.81851169  0.30105179    -0.39200
O3299       O  0.58977903  0.90699035  0.20605980    -0.39200
O3300       O  0.60549147  0.85786646  0.20106588    -0.37000
O3301       O  0.06662323  0.91854278  0.09915918    -0.37900
O3302       O  0.02066671  0.93535012  0.11537000    -0.34000
O3303       O  0.51479865  0.77863440  0.17584617    -0.35400
O3304       O  0.56601200  0.78429640  0.17274773    -0.39700
C3305       C  0.99840652  0.53879293  0.15543429    -0.13400
C3306       C  0.52658797  0.52973271  0.17240076     0.17000
C3307       C  0.55299168  0.51873314  0.15468387     0.03300
C3308       C  0.55187854  0.51853492  0.12146277    -0.11900
C3309       C  0.52509867  0.52917590  0.10498733    -0.03000
C3310       C  0.99807073  0.53913534  0.12186705     0.02500
C3311       C  0.52695841  0.52931537  0.20797115     0.09400
N3312       N  0.58189726  0.50915451  0.16983484     0.65700
H3313       H  0.57241124  0.51032825  0.10847090     0.18600
N3314       N  0.97144363  0.55251500  0.10529957     0.76200
H3315       H  0.97787694  0.54755013  0.16834407     0.10100
C3316       C  0.52277011  0.55715463  0.22626697     0.03800
C3317       C  0.52406698  0.55576792  0.25956538    -0.04900
C3318       C  0.52921255  0.52710032  0.27565357    -0.23300
C3319       C  0.53442229  0.00059941  0.25729758     0.13100
C3320       C  0.53219731  0.00191799  0.22393795    -0.12400
N3321       N  0.51874256  0.58741697  0.21157230     0.64800
H3322       H  0.52151973  0.57761912  0.27290209     0.12600
N3323       N  0.54479659  0.97151432  0.27157963     0.61400
H3324       H  0.53577580  0.98035238  0.21026646     0.08800
O3325       O  0.94715067  0.53595241  0.10004175    -0.40100
O3326       O  0.97373210  0.57943112  0.09248997    -0.39200
O3327       O  0.58914193  0.48006215  0.17025292    -0.39200
O3328       O  0.60365719  0.52933729  0.17304465    -0.37000
O3329       O  0.57394728  0.96806555  0.27779604    -0.37900
O3330       O  0.52807415  0.94702616  0.26810392    -0.34000
O3331       O  0.99007084  0.59747592  0.21175445    -0.35400
O3332       O  0.54284110  0.60457532  0.20764970    -0.39700
C3333       C  0.99594572  0.65259612  0.34387683    -0.13400
C3334       C  0.52108071  0.67306548  0.35681471     0.17000
C3335       C  0.54716794  0.65591652  0.36969627     0.03300
C3336       C  0.54746004  0.62276894  0.36897693    -0.11900
C3337       C  0.52329164  0.60594159  0.35407416    -0.03000
C3338       C  0.99628035  0.61922384  0.34267974     0.02500
C3339       C  0.52067765  0.70862412  0.35693344     0.09400
N3340       N  0.57424316  0.67170030  0.38258782     0.65700
H3341       H  0.56686727  0.60991951  0.38006309     0.18600
N3342       N  0.96943415  0.60273754  0.33023916     0.76200
H3343       H  0.97528296  0.66535607  0.33517950     0.10100
C3344       C  0.51513201  0.72652362  0.32897403     0.03800
C3345       C  0.51899166  0.75947990  0.32936956    -0.04900
C3346       C  0.52731368  0.77571351  0.35724896    -0.23300
C3347       C  0.53250868  0.75800284  0.38552690     0.13100
C3348       C  0.52840689  0.72498830  0.38513145    -0.12400
N3349       N  0.00995130  0.70795890  0.29822004     0.64800
H3350       H  0.01799550  0.76877415  0.30641288     0.12600
N3351       N  0.54406835  0.77238649  0.41426175     0.61400
H3352       H  0.53226392  0.71190408  0.40700298     0.08800
O3353       O  0.94474266  0.60014157  0.34695471    -0.40100
O3354       O  0.97246197  0.58594884  0.30555412    -0.39200
O3355       O  0.58102025  0.66829942  0.41170063    -0.39200
O3356       O  0.59485512  0.68264061  0.36389967    -0.37000
O3357       O  0.52563215  0.77484882  0.43775043    -0.37900
O3358       O  0.57348129  0.77150968  0.41982056    -0.34000
O3359       O  0.98164547  0.70917763  0.28830193    -0.35400
O3360       O  0.03196051  0.70315369  0.27840128    -0.39700
C3361       C  0.88421396  0.53528411  0.22333992    -0.13400
C3362       C  0.85596001  0.52870282  0.20680652     0.17000
C3363       C  0.82713449  0.02151611  0.22570428     0.03300
C3364       C  0.82959399  0.02029958  0.25892679    -0.11900
C3365       C  0.85786249  0.52824602  0.27455161    -0.03000
C3366       C  0.88526394  0.53604801  0.25678004     0.02500
C3367       C  0.85593050  0.52803288  0.17113164     0.09400
N3368       N  0.79649748  0.01713005  0.21176247     0.65700
H3369       H  0.80912385  0.01324308  0.27243547     0.18600
N3370       N  0.91374214  0.54686067  0.27168198     0.76200
H3371       H  0.90579777  0.54001510  0.21030180     0.10100
C3372       C  0.86993603  0.55237144  0.15265491     0.03800
C3373       C  0.86922670  0.55061172  0.11939229    -0.04900
C3374       C  0.85459346  0.52535839  0.10386543    -0.23300
C3375       C  0.83930251  0.00128875  0.12157764     0.13100
C3376       C  0.83973260  0.00260286  0.15500702    -0.12400
N3377       N  0.88347689  0.57997914  0.16687368     0.64800
H3378       H  0.87957213  0.56955858  0.10555214     0.12600
N3379       N  0.82268152  0.97628920  0.10581182     0.61400
H3380       H  0.82934237  0.98333266  0.16820809     0.08800
O3381       O  0.91939590  0.57614964  0.27065396    -0.40100
O3382       O  0.93700591  0.52796627  0.27380283    -0.39200
O3383       O  0.78486958  0.98963211  0.21129095    -0.39200
O3384       O  0.77792853  0.04070135  0.21013493    -0.37000
O3385       O  0.79448494  0.98089655  0.09659501    -0.37900
O3386       O  0.83768119  0.95213283  0.09614648    -0.34000
O3387       O  0.91330377  0.58279672  0.16692484    -0.35400
O3388       O  0.86650820  0.60466334  0.16913934    -0.39700
C3389       C  0.72691922  0.53931591  0.38112114    -0.13400
C3390       C  0.71092356  0.53728478  0.35192914     0.17000
C3391       C  0.72846206  0.53412408  0.32370672     0.03300
C3392       C  0.76140437  0.53289810  0.32504841    -0.11900
C3393       C  0.77782415  0.53288493  0.35403043    -0.03000
C3394       C  0.76019409  0.53638475  0.38297483     0.02500
C3395       C  0.67590094  0.53607316  0.35153054     0.09400
N3396       N  0.71328684  0.52991811  0.29354375     0.65700
H3397       H  0.77409249  0.53069028  0.30296568     0.18600
N3398       N  0.77462525  0.53653346  0.41422028     0.76200
H3399       H  0.71309943  0.54205411  0.40272719     0.10100
C3400       C  0.65936500  0.01105138  0.36336985     0.03800
C3401       C  0.62636170  0.00992487  0.35956007    -0.04900
C3402       C  0.60817649  0.53520971  0.35109128    -0.23300
C3403       C  0.62546924  0.56237144  0.34008802     0.13100
C3404       C  0.65878030  0.56163712  0.33929082    -0.12400
N3405       N  0.67508416  0.98570500  0.37997398     0.64800
H3406       H  0.61530167  0.98720024  0.36170319     0.12600
N3407       N  0.61098207  0.59141632  0.32998730     0.61400
H3408       H  0.67147858  0.58203264  0.33030762     0.08800
O3409       O  0.75859815  0.52868200  0.43833279    -0.40100
O3410       O  0.80303951  0.54474080  0.41825624    -0.39200
O3411       O  0.71373800  0.55238208  0.27374954    -0.39200
O3412       O  0.70881560  0.50205808  0.28351814    -0.37000
O3413       O  0.61453689  0.61535831  0.34768226    -0.37900
O3414       O  0.60825037  0.59611695  0.30038380    -0.34000
O3415       O  0.66284469  0.97474012  0.40504784    -0.35400
O3416       O  0.70183191  0.97541266  0.37099375    -0.39700
C3417       C  0.87749936  0.85954097  0.21767082    -0.13400
C3418       C  0.84766327  0.85494433  0.20402778     0.17000
C3419       C  0.82139254  0.84983625  0.22405929     0.03300
C3420       C  0.82555483  0.85044315  0.25709772    -0.11900
C3421       C  0.85570929  0.85374125  0.27113715    -0.03000
C3422       C  0.88238389  0.85711143  0.25054193     0.02500
C3423       C  0.84592040  0.85387703  0.16879480     0.09400
N3424       N  0.79118491  0.84054918  0.21171871     0.65700
H3425       H  0.80489069  0.84665488  0.27181787     0.18600
N3426       N  0.91463351  0.85503736  0.26140006     0.76200
H3427       H  0.89774365  0.86275447  0.20212517     0.10100
C3428       C  0.82847329  0.87661898  0.15135157     0.03800
C3429       C  0.82920754  0.87589190  0.11788989    -0.04900
C3430       C  0.84926134  0.85445802  0.10184876    -0.23300
C3431       C  0.86853800  0.83352112  0.11932915     0.13100
C3432       C  0.86595207  0.83255544  0.15246954    -0.12400
N3433       N  0.81267179  0.90222475  0.16733281     0.64800
H3434       H  0.81511250  0.89278454  0.10442860     0.12600
N3435       N  0.89250899  0.81495584  0.10382140     0.61400
H3436       H  0.88079031  0.81608273  0.16569903     0.08800
O3437       O  0.93675832  0.86768253  0.24571882    -0.40100
O3438       O  0.92143761  0.83964699  0.28606946    -0.39200
O3439       O  0.78674069  0.81151088  0.20603416    -0.39200
O3440       O  0.76733955  0.85806935  0.21702011    -0.37000
O3441       O  0.91895968  0.82732887  0.09756134    -0.37900
O3442       O  0.88585296  0.78816108  0.09231489    -0.34000
O3443       O  0.82867851  0.92247294  0.18253457    -0.35400
O3444       O  0.78275466  0.90332990  0.16833232    -0.39700
C3445       C  0.65881757  0.81996378  0.34633412    -0.13400
C3446       C  0.67608529  0.84808177  0.34928840     0.17000
C3447       C  0.65856456  0.87684806  0.35167094     0.03300
C3448       C  0.62532608  0.87685337  0.35153834    -0.11900
C3449       C  0.60819456  0.84862953  0.35148564    -0.03000
C3450       C  0.62554523  0.81966560  0.34825702     0.02500
C3451       C  0.71190279  0.84722103  0.34831689     0.09400
N3452       N  0.67389126  0.90641283  0.35644548     0.65700
H3453       H  0.61288794  0.89940679  0.35189175     0.18600
N3454       N  0.61062892  0.78932335  0.34831613     0.76200
H3455       H  0.67106028  0.79771113  0.34237556     0.10100
C3456       C  0.73055700  0.82406582  0.36463537     0.03800
C3457       C  0.76383193  0.82545212  0.36379469    -0.04900
C3458       C  0.77949387  0.84941949  0.34732515    -0.23300
C3459       C  0.76129829  0.87200854  0.33037127     0.13100
C3460       C  0.72805038  0.87014397  0.33032949    -0.12400
N3461       N  0.71663621  0.79921796  0.38284729     0.64800
H3462       H  0.77758777  0.80790519  0.37678664     0.12600
N3463       N  0.77587599  0.89766188  0.31385346     0.61400
H3464       H  0.71484445  0.88705417  0.31608477     0.08800
O3465       O  0.60690713  0.77522952  0.32201517    -0.40100
O3466       O  0.61372540  0.77256449  0.37296089    -0.39200
O3467       O  0.67126024  0.92756782  0.33534353    -0.39200
O3468       O  0.68137061  0.91418650  0.38448945    -0.37000
O3469       O  0.77507673  0.89791268  0.28379762    -0.37900
O3470       O  0.77950259  0.92359454  0.32843530    -0.34000
O3471       O  0.71656155  0.77154581  0.37128935    -0.35400
O3472       O  0.71532932  0.80237087  0.41269464    -0.39700
C3473       C  0.84664724  0.65629033  0.37188971    -0.13400
C3474       C  0.86130892  0.67049658  0.34559045     0.17000
C3475       C  0.87602217  0.65064618  0.32254539     0.03300
C3476       C  0.87445438  0.61764851  0.32572239    -0.11900
C3477       C  0.85912123  0.60382604  0.35152252    -0.03000
C3478       C  0.84500863  0.62336301  0.37454051     0.02500
C3479       C  0.86087402  0.70576585  0.34338113     0.09400
N3480       N  0.89112674  0.66314068  0.29490930     0.65700
H3481       H  0.88450987  0.60267907  0.30748584     0.18600
N3482       N  0.82706035  0.60996971  0.39960299     0.76200
H3483       H  0.83603662  0.67080942  0.39037457     0.10100
C3484       C  0.83232041  0.72333716  0.34631904     0.03800
C3485       C  0.83289814  0.75640278  0.34708387    -0.04900
C3486       C  0.86139083  0.77311190  0.34579323    -0.23300
C3487       C  0.89043801  0.75562942  0.34285325     0.13100
C3488       C  0.88956357  0.72223789  0.34151362    -0.12400
N3489       N  0.80222992  0.70812509  0.34859121     0.64800
H3490       H  0.81060101  0.76915491  0.34936293     0.12600
N3491       N  0.92088581  0.77073624  0.34125971     0.61400
H3492       H  0.91158267  0.70889609  0.33977688     0.08800
O3493       O  0.79758725  0.60620724  0.39581173    -0.40100
O3494       O  0.84140033  0.59595111  0.42193304    -0.39200
O3495       O  0.92104905  0.66209101  0.29338550    -0.39200
O3496       O  0.87541837  0.66452838  0.26930097    -0.37000
O3497       O  0.92353342  0.79798123  0.32957731    -0.37900
O3498       O  0.94564962  0.75633536  0.35044208    -0.34000
O3499       O  0.78862272  0.70722729  0.37534232    -0.35400
O3500       O  0.78568539  0.70516845  0.32367645    -0.39700
C3501       C  0.86641393  0.86447928  0.86224353     0.46400
H3502       H  0.88067423  0.87906497  0.87827749    -0.02600
C3503       C  0.83338227  0.82966528  0.82540468     0.46500
H3504       H  0.81884742  0.81413232  0.80985681    -0.02600
C3505       C  0.83085139  0.87017920  0.86753512    -0.16300
C3506       C  0.87291604  0.87177115  0.82696663    -0.16100
C3507       C  0.87345811  0.82914803  0.86772124    -0.16400
C3508       C  0.81285839  0.85163373  0.84769153    -0.16400
C3509       C  0.85534159  0.85292291  0.80665990    -0.16000
C3510       C  0.85650607  0.81018162  0.84744080    -0.16300
C3511       C  0.86681254  0.51578360  0.86472412     0.46400
H3512       H  0.88097379  0.00085248  0.87991804    -0.02600
C3513       C  0.83315213  0.55206889  0.82945869     0.46500
H3514       H  0.81853730  0.56800590  0.81420838    -0.02600
C3515       C  0.87436330  0.51070574  0.82942194    -0.16300
C3516       C  0.83141898  0.50957612  0.86944480    -0.16100
C3517       C  0.87251185  0.55094884  0.87192134    -0.16400
C3518       C  0.85659108  0.53013355  0.81006852    -0.16400
C3519       C  0.81305672  0.53012031  0.85204222    -0.16000
C3520       C  0.85503739  0.57050314  0.85264009    -0.16300
C3521       C  0.51850787  0.51532707  0.86640712     0.46400
H3522       H  0.00346570  0.99932660  0.88155139    -0.02600
C3523       C  0.55017719  0.55194768  0.83061795     0.46500
H3524       H  0.56213708  0.56791057  0.81417269    -0.02600
C3525       C  0.55451692  0.51171218  0.87300650    -0.16300
C3526       C  0.51307782  0.50791976  0.83102110    -0.16100
C3527       C  0.50938652  0.55006968  0.87180690    -0.16400
C3528       C  0.57228800  0.53212927  0.85345472    -0.16400
C3529       C  0.53058223  0.52693064  0.81155331    -0.16000
C3530       C  0.52602181  0.56981511  0.85266923    -0.16300
C3531       C  0.51715610  0.86469286  0.86713825     0.46400
H3532       H  0.00235484  0.87907236  0.88147740    -0.02600
C3533       C  0.54999819  0.82767892  0.83182444     0.46500
H3534       H  0.56322892  0.81190066  0.81551748    -0.02600
C3535       C  0.51019894  0.87042169  0.83167037    -0.16300
C3536       C  0.55311687  0.86980423  0.87221662    -0.16100
C3537       C  0.51042084  0.82983023  0.87431730    -0.16400
C3538       C  0.52847343  0.85119499  0.81262274    -0.16400
C3539       C  0.57110789  0.84911849  0.85343111    -0.16000
C3540       C  0.52802925  0.80971790  0.85573592    -0.16300
C3541       C  0.51639768  0.86700202  0.51682780     0.46400
H3542       H  0.00044074  0.87822735  0.00033744    -0.02600
C3543       C  0.55087526  0.83194831  0.55249143     0.46500
H3544       H  0.56553210  0.81582844  0.56722835    -0.02600
C3545       C  0.55187710  0.87126043  0.50977963    -0.16300
C3546       C  0.51148500  0.87486670  0.55226092    -0.16100
C3547       C  0.50859819  0.83185100  0.51242144    -0.16400
C3548       C  0.57060953  0.85228201  0.52906759    -0.16400
C3549       C  0.53061609  0.85665112  0.57171365    -0.16000
C3550       C  0.52709882  0.81297753  0.53142718    -0.16300
C3551       C  0.86419664  0.86204043  0.51226821     0.46400
H3552       H  0.87857364  0.87772399  0.99804735    -0.02600
C3553       C  0.82684479  0.82995016  0.54696358     0.46500
H3554       H  0.80942902  0.81919897  0.56272647    -0.02600
C3555       C  0.82913446  0.86961761  0.50539432    -0.16300
C3556       C  0.86871296  0.82606338  0.50667310    -0.16100
C3557       C  0.87040081  0.86845052  0.54753725    -0.16400
C3558       C  0.80928404  0.85196622  0.52344395    -0.16400
C3559       C  0.84801324  0.80788685  0.52514454    -0.16000
C3560       C  0.85002370  0.85164264  0.56618953    -0.16300
C3561       C  0.51549219  0.51752844  0.51573358     0.46400
H3562       H  0.00077816  0.99935473  0.00027549    -0.02600
C3563       C  0.55042609  0.55209186  0.55120484     0.46500
H3564       H  0.56587804  0.56664956  0.56686160    -0.02600
C3565       C  0.50772742  0.51229825  0.55087736    -0.16300
C3566       C  0.55080899  0.51012075  0.51106602    -0.16100
C3567       C  0.51057889  0.55303517  0.50879349    -0.16400
C3568       C  0.52621671  0.53101315  0.57011048    -0.16400
C3569       C  0.56970816  0.52855228  0.52979234    -0.16000
C3570       C  0.52974240  0.57207607  0.52721277    -0.16300
C3571       C  0.86326090  0.51319647  0.51406370     0.46400
H3572       H  0.87836722  0.99977530  0.99865398    -0.02600
C3573       C  0.82999565  0.54899022  0.55029832     0.46500
H3574       H  0.81669013  0.56425237  0.56695901    -0.02600
C3575       C  0.82751575  0.50848077  0.50801532    -0.16300
C3576       C  0.86929753  0.50607795  0.54919029    -0.16100
C3577       C  0.87060569  0.54834177  0.50899390    -0.16400
C3578       C  0.80922311  0.52772551  0.52798553    -0.16400
C3579       C  0.85184399  0.52535962  0.56862277    -0.16000
C3580       C  0.85230572  0.56767777  0.52765038    -0.16300
O3581       O  0.90522682  0.96644610  0.53177096    -0.72000
O3582       O  0.97595271  0.90910587  0.53411523    -0.73000
O3583       O  0.91143456  0.90221329  0.53192929    -0.61600
O3584       O  0.96926737  0.97286527  0.53343588    -0.70000
O3585       O  0.97536934  0.97272781  0.58543062    -0.69600
O3586       O  0.90326801  0.90276488  0.58366726    -0.60800
O3587       O  0.97442016  0.90174397  0.58590413    -0.73300
O3588       O  0.90477416  0.97327004  0.58383987    -0.72100
Cu3589     Cu  0.94050935  0.93757683  0.53179067     1.04600
Cu3590     Cu  0.93941140  0.93757668  0.58733014     1.04300
C3591       C  0.89419315  0.98057484  0.55602219     0.94200
C3592       C  0.98654706  0.89510436  0.55860371     0.93300
C3593       C  0.89628575  0.89190113  0.55578797     0.85500
C3594       C  0.98305425  0.98380101  0.55791908     0.91800
O3595       O  0.90702421  0.97677108  0.79420315    -0.72000
O3596       O  0.97688648  0.90431896  0.79520020    -0.73000
O3597       O  0.90558294  0.90783359  0.79380763    -0.61600
O3598       O  0.97741330  0.97518050  0.79566185    -0.70000
O3599       O  0.97431462  0.97106519  0.84778051    -0.69600
O3600       O  0.90886350  0.90904861  0.84594853    -0.60800
O3601       O  0.97302395  0.90718135  0.84733809    -0.73300
O3602       O  0.91016603  0.97301362  0.84632962    -0.72100
Cu3603     Cu  0.94181909  0.94101356  0.79216011     1.04600
Cu3604     Cu  0.94149205  0.94012992  0.84788934     1.04300
C3605       C  0.89794704  0.98587180  0.82196338     0.94200
C3606       C  0.98581712  0.89478303  0.82302624     0.93300
C3607       C  0.89653536  0.89756023  0.82100199     0.85500
C3608       C  0.98705873  0.98332408  0.82354291     0.91800
O3609       O  0.58681337  0.90452807  0.97852913    -0.72000
O3610       O  0.58863237  0.97621271  0.90806040    -0.73000
O3611       O  0.58720638  0.97504552  0.97847413    -0.61600
O3612       O  0.58861134  0.90352635  0.90741321    -0.70000
O3613       O  0.53701088  0.91021675  0.90681281    -0.69600
O3614       O  0.53535801  0.96995131  0.97525271    -0.60800
O3615       O  0.53702768  0.97456075  0.91092301    -0.73300
O3616       O  0.53522078  0.90573843  0.97111181    -0.72100
Cu3617     Cu  0.59041518  0.93978465  0.94307911     1.04600
Cu3618     Cu  0.53521449  0.94015181  0.94101509     1.04300
C3619       C  0.55904754  0.89396878  0.98539004     0.94200
C3620       C  0.56144399  0.98673921  0.89849529     0.93300
C3621       C  0.55921390  0.98327837  0.98760715     0.85500
C3622       C  0.56118158  0.89565205  0.89631748     0.91800
O3623       O  0.90641152  0.53389852  0.91169698    -0.72000
O3624       O  0.97457918  0.53338600  0.97044245    -0.73000
O3625       O  0.91066817  0.53362202  0.97548329    -0.61600
O3626       O  0.96999768  0.53248486  0.90688949    -0.70000
O3627       O  0.97638324  0.58420711  0.90744109    -0.69600
O3628       O  0.90311199  0.58529448  0.97564236    -0.60800
O3629       O  0.97348509  0.58484128  0.97851153    -0.73300
O3630       O  0.90634159  0.58569598  0.90520103    -0.72100
Cu3631     Cu  0.94035268  0.53233359  0.94121708     1.04600
Cu3632     Cu  0.93986202  0.58767133  0.94175596     1.04300
C3633       C  0.89598044  0.55819063  0.89742444     0.94200
C3634       C  0.98527589  0.55742239  0.98478487     0.93300
C3635       C  0.89575022  0.55759367  0.98591686     0.85500
C3636       C  0.98416579  0.55664182  0.89653098     0.91800
O3637       O  0.79276929  0.97612663  0.97207017    -0.72000
O3638       O  0.79414794  0.90392904  0.90088136    -0.73000
O3639       O  0.79305100  0.90484229  0.97205466    -0.61600
O3640       O  0.79459755  0.97489416  0.90068851    -0.70000
O3641       O  0.84636338  0.97193684  0.90653047    -0.69600
O3642       O  0.84514847  0.90742256  0.96927021    -0.60800
O3643       O  0.84595048  0.90787671  0.90521198    -0.73300
O3644       O  0.84456181  0.97137743  0.97095998    -0.72100
Cu3645     Cu  0.79100834  0.93995867  0.93637290     1.04600
Cu3646     Cu  0.84643127  0.93963494  0.93798016     1.04300
C3647       C  0.82016537  0.98465420  0.98272675     0.94200
C3648       C  0.82214040  0.89496461  0.89221943     0.93300
C3649       C  0.82068061  0.89531461  0.98132789     0.85500
C3650       C  0.82254447  0.98449585  0.89314980     0.91800
O3651       O  0.97575846  0.79331169  0.97501244    -0.72000
O3652       O  0.90340723  0.79384680  0.90542039    -0.73000
O3653       O  0.97370806  0.79461009  0.90392802    -0.61600
O3654       O  0.90584430  0.79233724  0.97685097    -0.70000
O3655       O  0.90202798  0.84310314  0.96701064    -0.69600
O3656       O  0.97596417  0.84584183  0.91361851    -0.60800
O3657       O  0.91244082  0.84506089  0.90360038    -0.73300
O3658       O  0.96592948  0.84454321  0.97773278    -0.72100
Cu3659     Cu  0.93971996  0.79081384  0.94022542     1.04600
Cu3660     Cu  0.93903700  0.84567916  0.94059458     1.04300
C3661       C  0.98160490  0.82064692  0.98728130     0.94200
C3662       C  0.89754844  0.82126501  0.89316885     0.93300
C3663       C  0.98586243  0.82190341  0.89818004     0.85500
C3664       C  0.89251281  0.81925530  0.98246715     0.91800
C3665       C  0.65656286  0.53650070  0.00779104    -0.13400
C3666       C  0.67165803  0.52001595  0.53334729     0.17000
C3667       C  0.65252065  0.50535576  0.55656778     0.03300
C3668       C  0.61933898  0.50731969  0.55409847    -0.11900
C3669       C  0.60478281  0.52561975  0.53034442    -0.03000
C3670       C  0.62353156  0.53929149  0.00644838     0.02500
C3671       C  0.70682367  0.52103879  0.53508866     0.09400
N3672       N  0.66600962  0.49085627  0.58420600     0.65700
H3673       H  0.60497963  0.49499392  0.57128418     0.18600
N3674       N  0.61008296  0.55971895  0.98304200     0.76200
H3675       H  0.67079418  0.54862789  0.99015831     0.10100
C3676       C  0.72501365  0.99197580  0.52253418     0.03800
C3677       C  0.75816307  0.99410318  0.52590788    -0.04900
C3678       C  0.77382302  0.52685445  0.53069624    -0.23300
C3679       C  0.75417808  0.55407101  0.53590401     0.13100
C3680       C  0.72119325  0.55069436  0.53764576    -0.12400
N3681       N  0.71310555  0.96457500  0.02381880     0.64800
H3682       H  0.77348551  0.97654316  0.02711104     0.12600
N3683       N  0.76627121  0.58547260  0.53953342     0.61400
H3684       H  0.70650060  0.57169494  0.54084021     0.08800
O3685       O  0.61489424  0.58908007  0.98604968    -0.40100
O3686       O  0.60441438  0.54861457  0.95566469    -0.39200
O3687       O  0.66980667  0.50763879  0.60884894    -0.39200
O3688       O  0.66394290  0.46120755  0.58728755    -0.37000
O3689       O  0.75936347  0.60540165  0.51821358    -0.37900
O3690       O  0.77024117  0.59578858  0.56751378    -0.34000
O3691       O  0.70513218  0.95788884  0.99559792    -0.35400
O3692       O  0.72049830  0.94237134  0.04240594    -0.39700
C3693       C  0.83056823  0.65369157  0.00565429    -0.13400
C3694       C  0.85195884  0.66957361  0.52401384     0.17000
C3695       C  0.87167134  0.65326981  0.54553041     0.03300
C3696       C  0.87154985  0.62002625  0.54611553    -0.11900
C3697       C  0.85206572  0.60272051  0.52521534    -0.03000
C3698       C  0.83067395  0.62037721  0.00487870     0.02500
C3699       C  0.85002371  0.70457946  0.52378285     0.09400
N3700       N  0.89243315  0.67037830  0.56623870     0.65700
H3701       H  0.88686272  0.60765282  0.56280115     0.18600
N3702       N  0.80977629  0.60477158  0.98244019     0.76200
H3703       H  0.81460190  0.66691829  0.99028547     0.10100
C3704       C  0.85799666  0.72282793  0.99863887     0.03800
C3705       C  0.85362036  0.75584331  0.99794643    -0.04900
C3706       C  0.84472956  0.77187559  0.52383392    -0.23300
C3707       C  0.83138435  0.75332171  0.54891335     0.13100
C3708       C  0.83460598  0.72024377  0.54866307    -0.12400
N3709       N  0.87250986  0.70698044  0.97217750     0.64800
H3710       H  0.85723971  0.76779257  0.97562041     0.12600
N3711       N  0.81105013  0.76641712  0.57274127     0.61400
H3712       H  0.82424010  0.70655521  0.56779754     0.08800
O3713       O  0.79271153  0.62103684  0.96373781    -0.40100
O3714       O  0.80708634  0.57506682  0.98157710    -0.39200
O3715       O  0.88243257  0.67961210  0.59304626    -0.39200
O3716       O  0.91748671  0.68221442  0.55507093    -0.37000
O3717       O  0.78153868  0.76810872  0.56745935    -0.37900
O3718       O  0.82134241  0.77092032  0.60062719    -0.34000
O3719       O  0.85567148  0.69835319  0.94885392    -0.35400
O3720       O  0.90041974  0.69619284  0.97497614    -0.39700
C3721       C  0.53258529  0.66002739  0.50172298    -0.13400
C3722       C  0.53158339  0.67531327  0.53139998     0.17000
C3723       C  0.53018227  0.65647100  0.55912173     0.03300
C3724       C  0.52948698  0.62328772  0.55662223    -0.11900
C3725       C  0.53019535  0.60775279  0.52696009    -0.03000
C3726       C  0.53242595  0.62677895  0.49903581     0.02500
C3727       C  0.53105743  0.71079076  0.53245333     0.09400
N3728       N  0.03031207  0.66703089  0.58989088     0.65700
H3729       H  0.02879277  0.60592363  0.57878279     0.18600
N3730       N  0.53558258  0.61160771  0.96694781     0.76200
H3731       H  0.53481693  0.67209277  0.97964740     0.10100
C3732       C  0.55548350  0.72894531  0.51842176     0.03800
C3733       C  0.55328613  0.76208898  0.51796304    -0.04900
C3734       C  0.52703808  0.77788453  0.53091146    -0.23300
C3735       C  0.00145141  0.75624261  0.54385983     0.13100
C3736       C  0.00327110  0.72292393  0.54466937    -0.12400
N3737       N  0.58330150  0.71432090  0.50543851     0.64800
H3738       H  0.57240082  0.77565918  0.50753885     0.12600
N3739       N  0.97514189  0.77223003  0.55837501     0.61400
H3740       H  0.98400847  0.70970852  0.55521417     0.08800
O3741       O  0.51510835  0.61953904  0.94643139    -0.40100
O3742       O  0.56280708  0.60418363  0.95700469    -0.39200
O3743       O  0.00526448  0.66797324  0.60632167    -0.39200
O3744       O  0.05678884  0.66985837  0.60372062    -0.37000
O3745       O  0.97828718  0.78415789  0.58578686    -0.37900
O3746       O  0.95096998  0.77916180  0.54191775    -0.34000
O3747       O  0.58559572  0.71154055  0.47557970    -0.35400
O3748       O  0.60830155  0.71376996  0.52207613    -0.39700
C3749       C  0.72424381  0.83348307  0.00029285    -0.13400
C3750       C  0.70758801  0.85230460  0.51998582     0.17000
C3751       C  0.72409975  0.87618242  0.53711714     0.03300
C3752       C  0.75743069  0.87565730  0.53757563    -0.11900
C3753       C  0.77441837  0.85254078  0.52077318    -0.03000
C3754       C  0.75730816  0.83532702  0.99953036     0.02500
C3755       C  0.67258524  0.84949102  0.52168267     0.09400
N3756       N  0.70750110  0.90147102  0.55326717     0.65700
H3757       H  0.77031991  0.89355570  0.55081531     0.18600
N3758       N  0.77429810  0.81731534  0.97617815     0.76200
H3759       H  0.71246364  0.81809665  0.98336764     0.10100
C3760       C  0.65246153  0.84954941  0.99595519     0.03800
C3761       C  0.61948950  0.84778939  0.99832895    -0.04900
C3762       C  0.60580684  0.84986661  0.52747139    -0.23500
C3763       C  0.62537751  0.84794520  0.55501096     0.13100
C3764       C  0.65837501  0.84732147  0.55170172    -0.12400
N3765       N  0.66578635  0.85682363  0.96560827     0.64800
H3766       H  0.60550517  0.84861426  0.97666245     0.12600
N3767       N  0.61277678  0.84800855  0.58661823     0.61400
H3768       H  0.67310155  0.84642437  0.57292233     0.08800
O3769       O  0.77826781  0.82897686  0.94882644    -0.40100
O3770       O  0.77746010  0.78777480  0.97993077    -0.39200
O3771       O  0.72082506  0.91648754  0.57562673    -0.39200
O3772       O  0.68152428  0.91187203  0.54228318    -0.37000
O3773       O  0.61236034  0.82220649  0.60180772    -0.37900
O3774       O  0.61318673  0.87359014  0.60223399    -0.34000
O3775       O  0.66517576  0.83594997  0.94404121    -0.35400
O3776       O  0.66825359  0.88554888  0.95769650    -0.39700
C3777       C  0.50849214  0.84076810  0.72450645    -0.13400
C3778       C  0.53415627  0.85587358  0.70999609     0.17000
C3779       C  0.55820716  0.86884742  0.72924324     0.03300
C3780       C  0.55525827  0.86808258  0.76262228    -0.11900
C3781       C  0.52932619  0.85303909  0.77721784    -0.03000
C3782       C  0.50656346  0.83765629  0.75777895     0.02500
C3783       C  0.53566817  0.85669685  0.67462441     0.09400
N3784       N  0.58671188  0.88052077  0.71515217     0.65700
H3785       H  0.57384313  0.87824967  0.77727221     0.18600
N3786       N  0.48310811  0.81669331  0.77081341     0.76200
H3787       H  0.49028814  0.83030574  0.70961207     0.10100
C3788       C  0.53625833  0.82842245  0.65677833     0.03800
C3789       C  0.53380068  0.82945595  0.62366497    -0.04900
C3790       C  0.53245433  0.85832849  0.60720285    -0.23300
C3791       C  0.53523929  0.88693552  0.62493648     0.13100
C3792       C  0.53548468  0.88580528  0.65845565    -0.12400
N3793       N  0.54108747  0.79842349  0.67180621     0.64800
H3794       H  0.53340893  0.80720336  0.61076736     0.12600
N3795       N  0.04255485  0.91257309  0.60788597     0.61400
H3796       H  0.03885717  0.90461584  0.67017045     0.08800
O3797       O  0.47190341  0.79463677  0.75386242    -0.40100
O3798       O  0.47552563  0.81800885  0.79981503    -0.39200
O3799       O  0.58985470  0.90986881  0.71047019    -0.39200
O3800       O  0.60606048  0.86127662  0.70250525    -0.37000
O3801       O  0.07050775  0.91839069  0.59896858    -0.37900
O3802       O  0.02388889  0.93561622  0.61265625    -0.34000
O3803       O  0.51767347  0.78040292  0.67587369    -0.35400
O3804       O  0.56879327  0.78683296  0.67273934    -0.39700
C3805       C  0.00010121  0.53991942  0.65683409    -0.13400
C3806       C  0.52667167  0.53014709  0.67275728     0.17000
C3807       C  0.55294888  0.51904958  0.65490959     0.03300
C3808       C  0.55180593  0.51923294  0.62168293    -0.11900
C3809       C  0.52515807  0.53041819  0.60533170    -0.03000
C3810       C  0.99913656  0.53968225  0.62325138     0.02500
C3811       C  0.52703613  0.52933231  0.70831650     0.09400
N3812       N  0.58178377  0.50904896  0.66994424     0.65700
H3813       H  0.57221885  0.51091826  0.60860458     0.18600
N3814       N  0.97259703  0.55354669  0.60697117     0.76200
H3815       H  0.98033499  0.55007301  0.66991728     0.10100
C3816       C  0.52293000  0.55697913  0.72692639     0.03800
C3817       C  0.52449101  0.55524439  0.76017686    -0.04900
C3818       C  0.52961392  0.52640045  0.77593655    -0.23300
C3819       C  0.53476636  0.99828102  0.75746230     0.13100
C3820       C  0.53274534  0.99943255  0.72402885    -0.12400
N3821       N  0.51851039  0.58737755  0.71262137     0.64800
H3822       H  0.52209704  0.57696950  0.77373621     0.12600
N3823       N  0.54562911  0.96950393  0.77200373     0.61400
H3824       H  0.53662182  0.97783857  0.71049856     0.08800
O3825       O  0.94862165  0.53691165  0.60056598    -0.40100
O3826       O  0.97493121  0.58084330  0.59502799    -0.39200
O3827       O  0.58830061  0.47980538  0.67092151    -0.39200
O3828       O  0.60407961  0.52873104  0.67252287    -0.37000
O3829       O  0.57495255  0.96621631  0.77744665    -0.37900
O3830       O  0.52878372  0.94496967  0.76977705    -0.34000
O3831       O  0.99419538  0.59939561  0.71295265    -0.35400
O3832       O  0.54230711  0.60508287  0.70935776    -0.39700
C3833       C  0.99548372  0.65352898  0.84330101    -0.13400
C3834       C  0.52062113  0.67191429  0.85604630     0.17000
C3835       C  0.54692758  0.65496938  0.86875859     0.03300
C3836       C  0.54713054  0.62181962  0.86868834    -0.11900
C3837       C  0.52288529  0.60479412  0.85417919    -0.03000
C3838       C  0.99657860  0.62013514  0.84252800     0.02500
C3839       C  0.51990793  0.70744199  0.85634590     0.09400
N3840       N  0.57441154  0.67095443  0.88050490     0.65700
H3841       H  0.56663035  0.60910656  0.87975766     0.18600
N3842       N  0.97035317  0.60289838  0.82976589     0.76200
H3843       H  0.97464985  0.66570456  0.83418860     0.10100
C3844       C  0.51363336  0.72549768  0.82863579     0.03800
C3845       C  0.51715853  0.75847564  0.82923292    -0.04900
C3846       C  0.52581158  0.77452413  0.85709769    -0.23300
C3847       C  0.53149779  0.75670836  0.88517451     0.13100
C3848       C  0.52786315  0.72365592  0.88457183    -0.12400
N3849       N  0.00653368  0.70985500  0.79817499     0.64800
H3850       H  0.01469755  0.77065600  0.80638974     0.12600
N3851       N  0.54287387  0.77114191  0.91394060     0.61400
H3852       H  0.53223258  0.71043444  0.90627272     0.08800
O3853       O  0.94531059  0.60012631  0.84592685    -0.40100
O3854       O  0.97424913  0.58582038  0.80539485    -0.39200
O3855       O  0.58315915  0.66669657  0.90897505    -0.39200
O3856       O  0.59343037  0.68323780  0.86097589    -0.37000
O3857       O  0.52482166  0.77225078  0.93783245    -0.37900
O3858       O  0.57240544  0.77216787  0.91874887    -0.34000
O3859       O  0.97809695  0.71164065  0.78871751    -0.35400
O3860       O  0.02812280  0.70462729  0.77800150    -0.39700
C3861       C  0.88479084  0.53545212  0.72310374    -0.13400
C3862       C  0.85616135  0.53047107  0.70657281     0.17000
C3863       C  0.82797454  0.02189674  0.72476126     0.03300
C3864       C  0.82947802  0.02151877  0.75807170    -0.11900
C3865       C  0.85805367  0.53018302  0.77445627    -0.03000
C3866       C  0.88583520  0.53652393  0.75660681     0.02500
C3867       C  0.85593341  0.52911463  0.67088333     0.09400
N3868       N  0.79780481  0.01685441  0.71002919     0.65700
H3869       H  0.80866962  0.01459007  0.77107585     0.18600
N3870       N  0.91449229  0.54697846  0.77143892     0.76200
H3871       H  0.90658872  0.53897187  0.71001471     0.10100
C3872       C  0.87113228  0.55228256  0.65189536     0.03800
C3873       C  0.87017083  0.54996407  0.61865644    -0.04900
C3874       C  0.85417556  0.52524391  0.60361886    -0.23300
C3875       C  0.84076523  0.99958082  0.62166702     0.13100
C3876       C  0.84171059  0.00130380  0.65506434    -0.12400
N3877       N  0.88616286  0.57936121  0.66557968     0.64800
H3878       H  0.88147572  0.56805646  0.60444566     0.12600
N3879       N  0.82435396  0.97413001  0.60640931     0.61400
H3880       H  0.83142875  0.98225278  0.66863960     0.08800
O3881       O  0.91939503  0.57641331  0.77243230    -0.40100
O3882       O  0.93824122  0.52857443  0.77169570    -0.39200
O3883       O  0.78611848  0.98938139  0.71041640    -0.39200
O3884       O  0.77946057  0.04034927  0.70624635    -0.37000
O3885       O  0.79629490  0.97847695  0.59665168    -0.37900
O3886       O  0.83966073  0.95000781  0.59714962    -0.34000
O3887       O  0.91609770  0.58071207  0.66529790    -0.35400
O3888       O  0.87042572  0.60484854  0.66775616    -0.39700
C3889       C  0.72733514  0.53956337  0.88255656    -0.13400
C3890       C  0.71097429  0.53736018  0.85357733     0.17000
C3891       C  0.72811554  0.53361450  0.82521051     0.03300
C3892       C  0.76103783  0.53232288  0.82613179    -0.11900
C3893       C  0.77791702  0.53312606  0.85479780    -0.03000
C3894       C  0.76066877  0.53682063  0.88396790     0.02500
C3895       C  0.67596987  0.53628267  0.85346198     0.09400
N3896       N  0.71251984  0.52896694  0.79532767     0.65700
H3897       H  0.77331826  0.52941555  0.80397547     0.18600
N3898       N  0.77550309  0.53711694  0.91502915     0.76200
H3899       H  0.71379612  0.54243652  0.90432472     0.10100
C3900       C  0.65871256  0.00842475  0.86420893     0.03800
C3901       C  0.62577761  0.00721934  0.86004398    -0.04900
C3902       C  0.60828688  0.53479352  0.85209731    -0.23300
C3903       C  0.62547708  0.56221621  0.84153023     0.13100
C3904       C  0.65880111  0.56184346  0.84132364    -0.12400
N3905       N  0.67420440  0.98395694  0.88231971     0.64800
H3906       H  0.61467481  0.98455911  0.86250741     0.12600
N3907       N  0.61090041  0.59101897  0.83086972     0.61400
H3908       H  0.67145268  0.58236446  0.83256288     0.08800
O3909       O  0.75993183  0.52876898  0.93927060    -0.40100
O3910       O  0.80384712  0.54572382  0.91876271    -0.39200
O3911       O  0.71296402  0.55101355  0.77506536    -0.39200
O3912       O  0.70751532  0.50097451  0.78596561    -0.37000
O3913       O  0.61443125  0.61530409  0.84809289    -0.37900
O3914       O  0.60830862  0.59516988  0.80117013    -0.34000
O3915       O  0.66142361  0.97406179  0.90757609    -0.35400
O3916       O  0.70142349  0.97376919  0.87473644    -0.39700
C3917       C  0.87642258  0.85865433  0.71739224    -0.13400
C3918       C  0.84669814  0.85395318  0.70355003     0.17000
C3919       C  0.82015508  0.84978741  0.72348816     0.03300
C3920       C  0.82400524  0.85124606  0.75657645    -0.11900
C3921       C  0.85404145  0.85472797  0.77086039    -0.03000
C3922       C  0.88089425  0.85746358  0.75040782     0.02500
C3923       C  0.84522650  0.85253974  0.66825947     0.09400
N3924       N  0.78986436  0.84081300  0.71109943     0.65700
H3925       H  0.80316466  0.84805396  0.77119364     0.18600
N3926       N  0.91297853  0.85606518  0.76170926     0.76200
H3927       H  0.89687416  0.86125733  0.70199650     0.10100
C3928       C  0.82860931  0.87566800  0.65052132     0.03800
C3929       C  0.82967236  0.87481241  0.61706118    -0.04900
C3930       C  0.84954475  0.85301874  0.60128645    -0.23300
C3931       C  0.86822870  0.83179383  0.61907190     0.13100
C3932       C  0.86510507  0.83085213  0.65220630    -0.12400
N3933       N  0.81392309  0.90207282  0.66623173     0.64800
H3934       H  0.81607323  0.89194432  0.60339416     0.12600
N3935       N  0.89247482  0.81324851  0.60397143     0.61400
H3936       H  0.87954319  0.81421882  0.66566883     0.08800
O3937       O  0.93508495  0.86894169  0.74619661    -0.40100
O3938       O  0.91969164  0.84081550  0.78648702    -0.39200
O3939       O  0.78491889  0.81176600  0.70592596    -0.39200
O3940       O  0.76630352  0.85886122  0.71588858    -0.37000
O3941       O  0.91935132  0.82537280  0.59920473    -0.37900
O3942       O  0.88568166  0.78725995  0.59079095    -0.34000
O3943       O  0.83089795  0.92197968  0.68080400    -0.35400
O3944       O  0.78409141  0.90390859  0.66821337    -0.39700
C3945       C  0.65757345  0.81986281  0.84553611    -0.13400
C3946       C  0.67437674  0.84818697  0.84926585     0.17000
C3947       C  0.65648478  0.87660285  0.85235593     0.03300
C3948       C  0.62331435  0.87614055  0.85212586    -0.11900
C3949       C  0.60661115  0.84769042  0.85159238    -0.03000
C3950       C  0.62431154  0.81903326  0.84746962     0.02500
C3951       C  0.71012863  0.84800300  0.84838588     0.09400
N3952       N  0.67135552  0.90618149  0.85827769     0.65700
H3953       H  0.61059559  0.89852395  0.85283941     0.18600
N3954       N  0.60973377  0.78853603  0.84612724     0.76200
H3955       H  0.67019487  0.79791641  0.84099936     0.10100
C3956       C  0.72905125  0.82505281  0.86459238     0.03800
C3957       C  0.76228627  0.82699382  0.86388006    -0.04900
C3958       C  0.77760273  0.85131034  0.84756194    -0.23300
C3959       C  0.75909843  0.87366616  0.83061129     0.13100
C3960       C  0.72588606  0.87135860  0.83062450    -0.12400
N3961       N  0.71536154  0.79976996  0.88238468     0.64800
H3962       H  0.77628414  0.80953878  0.87673663     0.12600
N3963       N  0.77331963  0.89932074  0.81377941     0.61400
H3964       H  0.71237927  0.88817199  0.81652838     0.08800
O3965       O  0.60692672  0.77524204  0.81928984    -0.40100
O3966       O  0.61192168  0.77107842  0.87037516    -0.39200
O3967       O  0.66871664  0.92792339  0.83779038    -0.39200
O3968       O  0.67788393  0.91327460  0.88674022    -0.37000
O3969       O  0.77297871  0.89891659  0.78371425    -0.37900
O3970       O  0.77607575  0.92564228  0.82784767    -0.34000
O3971       O  0.71607042  0.77215490  0.87069996    -0.35400
O3972       O  0.71277094  0.80284762  0.91216048    -0.39700
C3973       C  0.84381437  0.65788154  0.87114121    -0.13400
C3974       C  0.85851180  0.67208977  0.84483675     0.17000
C3975       C  0.87375491  0.65227703  0.82212943     0.03300
C3976       C  0.87294869  0.61928838  0.82571865    -0.11900
C3977       C  0.85785568  0.60539811  0.85165002    -0.03000
C3978       C  0.84312993  0.62490491  0.87437073     0.02500
C3979       C  0.85819293  0.70737708  0.84257966     0.09400
N3980       N  0.88863228  0.66479688  0.79438046     0.65700
H3981       H  0.88341382  0.60435389  0.80765843     0.18600
N3982       N  0.82564541  0.61140168  0.89976099     0.76200
H3983       H  0.83263773  0.67244778  0.88926662     0.10100
C3984       C  0.82964984  0.72504832  0.84457369     0.03800
C3985       C  0.83037027  0.75812699  0.84587579    -0.04900
C3986       C  0.85898956  0.77476039  0.84564201    -0.23300
C3987       C  0.88801236  0.75713468  0.84316134     0.13100
C3988       C  0.88699246  0.72374399  0.84167788    -0.12400
N3989       N  0.79942773  0.70992572  0.84487992     0.64800
H3990       H  0.80805242  0.77093404  0.84754461     0.12600
N3991       N  0.91859348  0.77205404  0.84202638     0.61400
H3992       H  0.90897955  0.71029096  0.84044386     0.08800
O3993       O  0.79624220  0.60692206  0.89629249    -0.40100
O3994       O  0.84035080  0.59864222  0.92263132    -0.39200
O3995       O  0.91855401  0.66405615  0.79273479    -0.39200
O3996       O  0.87279095  0.66602005  0.76884485    -0.37000
O3997       O  0.92169493  0.79910235  0.82999011    -0.37900
O3998       O  0.94312118  0.75743688  0.85149858    -0.34000
O3999       O  0.78445171  0.70836167  0.87083950    -0.35400
O4000       O  0.78418415  0.70772529  0.81905993    -0.39700
loop_ 
_geom_bond_atom_site_label_1 
_geom_bond_atom_site_label_2 
_geom_bond_distance 
_geom_bond_site_symmetry_2 
_ccdc_geom_bond_type 
C1            H2   1.092       .  S
C1            C7   1.532       .  S
C1            C6   1.538       .  S
C1            C5   1.531       .  S
C3            H4   1.110       .  S
C3            C9   1.566       .  S
C3            C8   1.569       .  S
C3           C10   1.571       .  S
C5            C8   1.369       .  D
C5          C148   1.510       .  S
C6            C9   1.381       .  D
C6          C107   1.502       .  S
C7           C10   1.368       .  D
C7          C162   1.504       .  S
C8          C458   1.481       .  S
C9          C421   1.502       .  S
C10         C486   1.497       .  S
C11        H1012   1.093       .  S
C11          C17   1.531       .  S
C11          C16   1.529       .  S
C11          C15   1.530       .  S
H12        C1011   1.093       .  S
C13          H14   1.111       .  S
C13          C19   1.577       .  S
C13          C18   1.572       .  S
C13          C20   1.549       .  S
C15          C18   1.370       .  D
C15        C1105   1.501   1_545  S
C16          C19   1.371       .  D
C16        C1150   1.507   1_545  S
C17          C20   1.365       .  D
C17         C133   1.486       .  S
C18         C365   1.491       .  S
C19         C393   1.490       .  S
C20         C477   1.477       .  S
C21        H3022   1.092   1_545  S
C21          C27   1.528       .  S
C21          C26   1.533       .  S
C21          C25   1.548       .  S
H22        C3021   1.091       .  S
C23          H24   1.091       .  S
C23          C29   1.561       .  S
C23          C28   1.573       .  S
C23          C30   1.566       .  S
C25          C28   1.413       .  D
C25        C1120   1.544   1_545  S
C26          C29   1.367       .  D
C26        C3108   1.496   1_445  S
C27          C30   1.358       .  D
C27        C2136   1.504   1_455  S
C28         C402   1.526       .  S
C29         C318   1.496       .  S
C30         C337   1.481       .  S
C31        H2032   1.094       .  S
C31          C37   1.530       .  S
C31          C36   1.541       .  S
C31          C35   1.536       .  S
H32        C2031   1.094       .  S
C33          H34   1.104       .  S
C33          C39   1.559       .  S
C33          C38   1.562       .  S
C33          C40   1.567       .  S
C35          C38   1.372       .  D
C35        C2106   1.512   1_455  S
C36          C39   1.390       .  D
C36         C122   1.519       .  S
C37          C40   1.367       .  D
C37        C2163   1.504   1_455  S
C38         C281   1.487       .  S
C39         C449   1.494       .  S
C40         C346   1.487       .  S
C41        H2542   1.094       .  S
C41          C47   1.530       .  S
C41          C46   1.535       .  S
C41          C45   1.537       .  S
H42        C2541   1.094       .  S
C43          H44   1.103       .  S
C43          C49   1.564       .  S
C43          C48   1.553       .  S
C43          C50   1.555       .  S
C45          C48   1.385       .  D
C45         C619   1.516   1_554  S
C46          C49   1.376       .  D
C46        C2092   1.499   1_455  S
C47          C50   1.364       .  D
C47        C2661   1.504   1_454  S
C48         C262   1.489       .  S
C49         C290   1.491       .  S
C50         C234   1.475       .  S
C51         H552   1.093   1_554  S
C51          C57   1.527       .  S
C51          C56   1.545       .  S
C51          C55   1.536       .  S
H52         C551   1.093       .  S
C53          H54   1.091       .  S
C53          C59   1.578       .  S
C53          C58   1.541       .  S
C53          C60   1.560       .  S
C55          C58   1.358       .  D
C55         C649   1.492   1_554  S
C56          C59   1.401       .  D
C56         C664   1.518   1_554  S
C57          C60   1.364       .  D
C57          C93   1.514       .  S
C58         C253   1.473       .  S
C59         C206   1.528       .  S
C60         C430   1.471       .  S
C61        H3562   1.093   1_545  S
C61          C67   1.537       .  S
C61          C66   1.533       .  S
C61          C65   1.527       .  S
H62        C3561   1.093       .  S
C63          H64   1.111       .  S
C63          C69   1.562       .  S
C63          C68   1.575       .  S
C63          C70   1.571       .  S
C65          C68   1.370       .  D
C65        C3094   1.516   1_445  S
C66          C69   1.366       .  D
C66        C1621   1.497   1_544  S
C67          C70   1.375       .  D
C67        C2634   1.494   1_454  S
C68         C309   1.477       .  S
C69         C169   1.485       .  S
C70         C225   1.501       .  S
C71        H1572   1.094   1_554  S
C71          C77   1.532       .  S
C71          C76   1.526       .  S
C71          C75   1.541       .  S
H72        C1571   1.093       .  S
C73          H74   1.100       .  S
C73          C79   1.554       .  S
C73          C78   1.564       .  S
C73          C80   1.558       .  S
C75          C78   1.395       .  D
C75        C1647   1.526   1_544  S
C76          C79   1.364       .  D
C76        C1091   1.496   1_545  S
C77          C80   1.365       .  D
C77         C635   1.498   1_554  S
C78         C178   1.499       .  S
C79         C374   1.472       .  S
C80         C197   1.482       .  S
O81         Cu89   1.911       .  S
O81          C91   1.265       .  A
O82         Cu89   1.907       .  S
O82          C92   1.265       .  A
O83         Cu89   1.934       .  S
O83          C93   1.267       .  A
O84         Cu89   1.926       .  S
O84          C94   1.266       .  A
O85         Cu90   2.130       .  S
O85          C94   1.289       .  A
O86         Cu90   2.126       .  S
O86          C93   1.289       .  A
O87         Cu90   2.101       .  S
O87          C92   1.284       .  A
O88         Cu90   2.091       .  S
O88          C91   1.285       .  A
Cu89        Cu90   2.329       .  S
C91        C1076   1.495       .  S
C92        C2046   1.498       .  S
C94        C3065   1.517       .  S
O95        Cu103   2.100       .  S
O95         C105   1.284       .  A
O96        Cu103   2.137       .  S
O96         C106   1.291       .  A
O97        Cu103   2.080       .  S
O97         C107   1.281       .  A
O98        Cu103   2.091       .  S
O98         C108   1.284       .  A
O99        Cu104   1.906       .  S
O99         C108   1.264       .  A
O100       Cu104   1.907       .  S
O100        C107   1.264       .  A
O101       Cu104   1.914       .  S
O101        C106   1.265       .  A
O102       Cu104   1.909       .  S
O102        C105   1.265       .  A
Cu103      Cu104   2.338       .  S
C105       C1015   1.502       .  S
C106       C2035   1.515       .  S
C108       C3026   1.497       .  S
O109       Cu117   2.107       .  S
O109        C119   1.287       .  A
O110       Cu117   2.131       .  S
O110        C120   1.288       .  A
O111       Cu117   2.096       .  S
O111        C121   1.285       .  A
O112       Cu117   2.128       .  S
O112        C122   1.288       .  A
O113       Cu118   1.909       .  S
O113        C122   1.264       .  A
O114       Cu118   1.903       .  S
O114        C121   1.263       .  A
O115       Cu118   1.932       .  S
O115        C120   1.267       .  A
O116       Cu118   1.934       .  S
O116        C119   1.268       .  A
Cu117      Cu118   2.321       .  S
C119        C545   1.516       .  S
C120       C1025   1.548       .  S
C121       C1566   1.496       .  S
O123       Cu131   1.894       .  S
O123        C133   1.264       .  A
O124       Cu131   1.892       .  S
O124        C134   1.263       .  A
O125       Cu131   1.913       .  S
O125        C135   1.265       .  A
O126       Cu131   1.910       .  S
O126        C136   1.263       .  A
O127       Cu132   2.110       .  S
O127        C136   1.289       .  A
O128       Cu132   2.108       .  S
O128        C135   1.286       .  A
O129       Cu132   2.098       .  S
O129        C134   1.283       .  A
O130       Cu132   2.080       .  S
O130        C133   1.283       .  A
Cu131      Cu132   2.327       .  S
C134       C2567   1.494       .  S
C135        C577   1.501       .  S
C136       C2027   1.502       .  S
O137       Cu145   2.131       .  S
O137        C147   1.289       .  A
O138       Cu145   2.125       .  S
O138        C148   1.288       .  A
O139       Cu145   2.111       .  S
O139        C149   1.288       .  A
O140       Cu145   2.107       .  S
O140        C150   1.287       .  A
O141       Cu146   1.895       .  S
O141        C150   1.261       .  A
O142       Cu146   1.888       .  S
O142        C149   1.260       .  A
O143       Cu146   1.910       .  S
O143        C148   1.265       .  A
O144       Cu146   1.917       .  S
O144        C147   1.266       .  A
Cu145      Cu146   2.334       .  S
C147       C1575   1.528       .  S
C149        C555   1.493       .  S
C150       C1016   1.504       .  S
O151       Cu159   2.108       .  S
O151        C161   1.287       .  A
O152       Cu159   2.110       .  S
O152        C162   1.288       .  A
O153       Cu159   2.100       .  S
O153        C163   1.287       .  A
O154       Cu159   2.103       .  S
O154        C164   1.284       .  A
O155       Cu160   1.914       .  S
O155        C164   1.266       .  A
O156       Cu160   1.923       .  S
O156        C163   1.266       .  A
O157       Cu160   1.908       .  S
O157        C162   1.263       .  A
O158       Cu160   1.920       .  S
O158        C161   1.265       .  A
Cu159      Cu160   2.321       .  S
C161       C2547   1.503       .  S
C163       C2037   1.502       .  S
C164        C556   1.517       .  S
C165        C170   1.397       .  A
C165        C666   1.396       .  A
C165        H175   1.085       .  S
C166        C167   1.412       .  A
C166        C665   1.398       .  A
C166        C171   1.483       .  S
C167        C168   1.404       .  A
C167        N172   1.427   1_545  S
C168        C169   1.400       .  A
C168        H173   1.078   1_545  S
C169        C670   1.409       .  A
C170        C669   1.412       .  A
C170        N174   1.423       .  S
C171        C180   1.397       .  A
C171       C1176   1.404   1_545  A
N172        O187   1.262   1_565  A
N172        O188   1.261       .  A
N174        O185   1.260       .  A
N174        O186   1.262       .  A
C176        C177   1.395       .  A
C176       C1171   1.402       .  A
C176        N681   1.420       .  S
C177       C1178   1.400       .  A
C177        H682   1.082       .  S
C178        C179   1.428       .  A
C178       C1177   1.399   1_545  A
C179        C180   1.401       .  A
C179        N183   1.430       .  S
C180        H184   1.085       .  S
N181        C676   1.420       .  S
N181        O191   1.262       .  A
N181        O192   1.257       .  A
H182        C677   1.081       .  S
N183        O189   1.261       .  A
N183        O190   1.262       .  A
C193        C198   1.407       .  A
C193        C694   1.396       .  A
C193        H203   1.083       .  S
C194        C195   1.403       .  A
C194        C693   1.396       .  A
C194        C199   1.480       .  S
C195        C196   1.403       .  A
C195        N200   1.429       .  S
C196        C197   1.406       .  A
C196        H201   1.083       .  S
C197        C698   1.425       .  A
C198        C697   1.426       .  A
C198        N202   1.447       .  S
C199        C208   1.394       .  A
C199        C704   1.402   1_554  A
N200        O215   1.262       .  A
N200        O216   1.262       .  A
N202        O213   1.263       .  A
N202        O214   1.259       .  A
C204        C205   1.405       .  A
C204        C699   1.404       .  A
C204        N209   1.430       .  S
C205        C706   1.412       .  A
C205        H210   1.079       .  S
C206        C207   1.431       .  A
C206        C705   1.412   1_554  A
C207        C208   1.401       .  A
C207        N211   1.425       .  S
C208        H212   1.084       .  S
N209        O219   1.261       .  A
N209        O220   1.262       .  A
N211        O217   1.263       .  A
N211        O218   1.261       .  A
C221        C222   1.400       .  A
C221        C226   1.403   1_554  A
C221        H731   1.083   1_554  S
C222        C223   1.413       .  A
C222        C227   1.494       .  S
C223        C224   1.402       .  A
C223       N2228   1.428       .  S
C224        C225   1.405       .  A
C224       H2229   1.083       .  S
C225        C226   1.425   1_554  A
C226        N730   1.432       .  S
C227        C232   1.418       .  A
C227       C2236   1.409       .  A
N228       C2223   1.428       .  S
N228        O243   1.262       .  A
N228        O244   1.262       .  A
H229       C2224   1.083       .  S
N230        C726   1.430       .  S
N230        O241   1.260       .  A
N230        O242   1.258       .  A
H231        C721   1.083       .  S
C232        C233   1.398       .  A
C232        N237   1.429       .  S
C233        C234   1.395       .  A
C233        H238   1.085       .  S
C234       C2235   1.406       .  A
C235        C236   1.406       .  A
C235       C2234   1.406       .  A
C235        N239   1.430       .  S
C236       C2227   1.409       .  A
C236        H240   1.083       .  S
N237        O247   1.262   1_554  A
N237        O248   1.262       .  A
N239        O245   1.261       .  A
N239        O246   1.262       .  A
C249        C254   1.394       .  A
C249        C750   1.403       .  A
C249        H259   1.082       .  S
C250        C251   1.426       .  A
C250        C749   1.404       .  A
C250        C255   1.489       .  S
C251        C252   1.405       .  A
C251        N256   1.444       .  S
C252        C253   1.397       .  A
C252        H257   1.084       .  S
C253        C754   1.405   1_554  A
C254        C753   1.405       .  A
C254        N258   1.428       .  S
C255        C264   1.401       .  A
C255        C760   1.415   1_554  A
N256        O271   1.263       .  A
N256        O272   1.263       .  A
N258        O269   1.262       .  A
N258        O270   1.262       .  A
C260        C261   1.395       .  A
C260        C755   1.413       .  A
C260        N265   1.428       .  S
C261        C762   1.400       .  A
C261        H266   1.082       .  S
C262        C263   1.421       .  A
C262        C761   1.399   1_554  A
C263        C264   1.396       .  A
C263        N267   1.430       .  S
C264        H268   1.084       .  S
N265        O275   1.261       .  A
N265        O276   1.262       .  A
N267        O273   1.263       .  A
N267        O274   1.262       .  A
C277        C278   1.399       .  A
C277        C282   1.404       .  A
C277        H287   1.084   1_455  S
C278        C279   1.407       .  A
C278        C283   1.484       .  S
C279        C280   1.407       .  A
C279        N284   1.431       .  S
C280        C281   1.409       .  A
C280        H285   1.084       .  S
C281        C282   1.416       .  A
C282        N286   1.440   1_455  S
C283        C288   1.406       .  A
C283        C292   1.403       .  A
N284        O299   1.261       .  A
N284        O300   1.263       .  A
N286        O297   1.263       .  A
N286        O298   1.260       .  A
C288        C289   1.394       .  A
C288        N293   1.428       .  S
C289        C290   1.402       .  A
C289        H294   1.082       .  S
C290        C291   1.421       .  A
C291        C292   1.406       .  A
C291       N2295   1.432       .  S
C292       H2296   1.084       .  S
N293        O303   1.261       .  A
N293        O304   1.262       .  A
N295       C2291   1.432       .  S
N295        O301   1.262       .  A
N295        O302   1.261       .  A
H296       C2292   1.084       .  S
C305        C310   1.408       .  A
C305       C2306   1.410       .  A
C305        H315   1.083       .  S
C306        C307   1.414       .  A
C306       C2305   1.411   1_455  A
C306        C311   1.493       .  S
C307        C308   1.394       .  A
C307        N312   1.428       .  S
C308        C309   1.392       .  A
C308        H313   1.077       .  S
C309       C2310   1.409   1_455  A
C310       C2309   1.409       .  A
C310        N314   1.431       .  S
C311        C316   1.412       .  A
C311       C1320   1.405   1_545  A
N312        O327   1.262   1_545  A
N312        O328   1.262       .  A
N314        O325   1.261       .  A
N314        O326   1.261       .  A
C316        C317   1.399       .  A
C316        N321   1.428       .  S
C317        C318   1.401       .  A
C317        H322   1.081       .  S
C318       C1319   1.419   1_545  A
C319        C320   1.404       .  A
C319       C1318   1.419       .  A
C319        N323   1.432       .  S
C320       C1311   1.404       .  A
C320        H324   1.084       .  S
N321        O332   1.262       .  A
N321       O2331   1.262   1_455  A
N323        O329   1.262       .  A
N323        O330   1.262       .  A
O331       N2321   1.262       .  A
C333        C338   1.406       .  A
C333       C2334   1.409       .  A
C333        H343   1.083       .  S
C334        C335   1.415       .  A
C334       C2333   1.409   1_455  A
C334        C339   1.495       .  S
C335        C336   1.397       .  A
C335        N340   1.430       .  S
C336        C337   1.391       .  A
C336        H341   1.081       .  S
C337       C2338   1.409   1_455  A
C338       C2337   1.409       .  A
C338        N342   1.427       .  S
C339        C344   1.412       .  A
C339        C348   1.407       .  A
N340        O355   1.262       .  A
N340        O356   1.262       .  A
N342        O353   1.261       .  A
N342        O354   1.259       .  A
C344        C345   1.399       .  A
C344       N2349   1.427       .  S
C345        C346   1.399       .  A
C345       H2350   1.080       .  S
C346        C347   1.417       .  A
C347        C348   1.403       .  A
C347        N351   1.433       .  S
C348        H352   1.084       .  S
N349       C2344   1.427       .  S
N349        O359   1.262       .  A
N349        O360   1.261       .  A
H350       C2345   1.081       .  S
N351        O357   1.260       .  A
N351        O358   1.260       .  A
C361        C362   1.406       .  A
C361        C366   1.405       .  A
C361        H371   1.082       .  S
C362       C1363   1.416       .  A
C362        C367   1.499       .  S
C363        C364   1.395       .  A
C363       C1362   1.412       .  A
C363        N368   1.429       .  S
C364       C1365   1.395       .  A
C364        H369   1.066       .  S
C365        C366   1.415       .  A
C365       C1364   1.396       .  A
C366        N370   1.428       .  S
C367        C372   1.420       .  A
C367       C1376   1.411       .  A
N368        O383   1.262       .  A
N368        O384   1.262       .  A
N370        O381   1.260       .  A
N370        O382   1.261       .  A
C372        C373   1.398       .  A
C372        N377   1.428       .  S
C373        C374   1.394       .  A
C373        H378   1.083       .  S
C374       C1375   1.403       .  A
C375        C376   1.402       .  A
C375       C1374   1.404       .  A
C375        N379   1.430       .  S
C376       C1367   1.410       .  A
C376        H380   1.081       .  S
N377        O387   1.262       .  A
N377        O388   1.262       .  A
N379        O385   1.262       .  A
N379        O386   1.261       .  A
C389        C390   1.400       .  A
C389        C394   1.409       .  A
C389        H399   1.084       .  S
C390        C391   1.404       .  A
C390        C395   1.479       .  S
C391        C392   1.389       .  A
C391        N396   1.428       .  S
C392        C393   1.397       .  A
C392        H397   1.074       .  S
C393        C394   1.432       .  A
C394        N398   1.444       .  S
C395        C404   1.391       .  A
C395       C1400   1.405       .  A
N396        O411   1.262       .  A
N396        O412   1.262       .  A
N398        O409   1.264       .  A
N398        O410   1.260       .  A
C400        C401   1.398       .  A
C400       C1395   1.402       .  A
C400        N405   1.434       .  S
C401       C1402   1.402       .  A
C401        H406   1.069       .  S
C402        C403   1.441       .  A
C402       C1401   1.403       .  A
C403        C404   1.403       .  A
C403        N407   1.429       .  S
C404        H408   1.085       .  S
N405        O415   1.263       .  A
N405        O416   1.262       .  A
N407        O413   1.261       .  A
N407        O414   1.263       .  A
C417        C418   1.394       .  A
C417        C422   1.396       .  A
C417        H427   1.084       .  S
C418        C419   1.410       .  A
C418        C423   1.481       .  S
C419        C420   1.399       .  A
C419        N424   1.429       .  S
C420        C421   1.407       .  A
C420        H425   1.081       .  S
C421        C422   1.424       .  A
C422        N426   1.430       .  S
C423        C428   1.409       .  A
C423        C432   1.407       .  A
N424        O439   1.262       .  A
N424        O440   1.262       .  A
N426        O437   1.264       .  A
N426        O438   1.254       .  A
C428        C429   1.405       .  A
C428        N433   1.430       .  S
C429        C430   1.404       .  A
C429        H434   1.083       .  S
C430        C431   1.402       .  A
C431        C432   1.396       .  A
C431        N435   1.430       .  S
C432        H436   1.084       .  S
N433        O443   1.262       .  A
N433        O444   1.261       .  A
N435        O441   1.262       .  A
N435        O442   1.261       .  A
C445        C446   1.401       .  A
C445        C450   1.401       .  A
C445        H455   1.080       .  S
C446        C447   1.418       .  A
C446        C451   1.504       .  S
C447        C448   1.396       .  A
C447        N452   1.422       .  S
C448        C449   1.396       .  A
C448        H453   1.082       .  S
C449        C450   1.422       .  A
C450        N454   1.429       .  S
C451        C456   1.423       .  A
C451        C460   1.407       .  A
N452        O467   1.263       .  A
N452        O468   1.261       .  A
N454        O465   1.262       .  A
N454        O466   1.260       .  A
C456        C457   1.400       .  A
C456        N461   1.429       .  S
C457        C458   1.395       .  A
C457        H462   1.083       .  S
C458        C459   1.411       .  A
C459        C460   1.402       .  A
C459        N463   1.429       .  S
C460        H464   1.082       .  S
N461        O471   1.263       .  A
N461        O472   1.261       .  A
N463        O469   1.262       .  A
N463        O470   1.262       .  A
C473        C474   1.404       .  A
C473        C478   1.397       .  A
C473        H483   1.081       .  S
C474        C475   1.417       .  A
C474        C479   1.491       .  S
C475        C476   1.400       .  A
C475        N480   1.428       .  S
C476        C477   1.394       .  A
C476        H481   1.078       .  S
C477        C478   1.401       .  A
C478        N482   1.420       .  S
C479        C484   1.412       .  A
C479        C488   1.400       .  A
N480        O495   1.262       .  A
N480        O496   1.262       .  A
N482        O493   1.262       .  A
N482        O494   1.261       .  A
C484        C485   1.396       .  A
C484        N489   1.428       .  S
C485        C486   1.398       .  A
C485        H490   1.082       .  S
C486        C487   1.430       .  A
C487        C488   1.410       .  A
C487        N491   1.439       .  S
C488        H492   1.084       .  S
N489        O499   1.262       .  A
N489        O500   1.261       .  A
N491        O497   1.256       .  A
N491        O498   1.263       .  A
C501        H502   1.092       .  S
C501        C507   1.533       .  S
C501        C506   1.537       .  S
C501        C505   1.531       .  S
C503        H504   1.110       .  S
C503        C509   1.568       .  S
C503        C508   1.570       .  S
C503        C510   1.570       .  S
C505        C508   1.371       .  D
C505        C648   1.510       .  S
C506        C509   1.381       .  D
C506        C607   1.502       .  S
C507        C510   1.369       .  D
C507        C662   1.506       .  S
C508        C958   1.483       .  S
C509        C921   1.505       .  S
C510        C986   1.497       .  S
C511       H1512   1.093       .  S
C511        C517   1.530       .  S
C511        C516   1.527       .  S
C511        C515   1.532       .  S
H512       C1511   1.092       .  S
C513        H514   1.110       .  S
C513        C519   1.579       .  S
C513        C518   1.575       .  S
C513        C520   1.553       .  S
C515        C518   1.372       .  D
C515       C1605   1.498   1_545  S
C516        C519   1.366       .  D
C516       C1650   1.505   1_545  S
C517        C520   1.367       .  D
C517        C633   1.489       .  S
C518        C865   1.499       .  S
C519        C893   1.487       .  S
C520        C977   1.478       .  S
C521       H3522   1.091   1_545  S
C521        C527   1.527       .  S
C521        C526   1.534       .  S
C521        C525   1.548       .  S
H522       C3521   1.091       .  S
C523        H524   1.092       .  S
C523        C529   1.560       .  S
C523        C528   1.572       .  S
C523        C530   1.565       .  S
C525        C528   1.410       .  D
C525       C1620   1.541   1_545  S
C526        C529   1.367       .  D
C526       C3608   1.498   1_445  S
C527        C530   1.359       .  D
C527       C2636   1.503   1_455  S
C528        C902   1.524       .  S
C529        C818   1.495       .  S
C530        C837   1.479       .  S
C531       H2532   1.093       .  S
C531        C537   1.530       .  S
C531        C536   1.543       .  S
C531        C535   1.535       .  S
H532       C2531   1.094       .  S
C533        H534   1.105       .  S
C533        C539   1.559       .  S
C533        C538   1.566       .  S
C533        C540   1.568       .  S
C535        C538   1.375       .  D
C535       C2606   1.519   1_455  S
C536        C539   1.390       .  D
C536        C622   1.519       .  S
C537        C540   1.367       .  D
C537       C2663   1.503   1_455  S
C538        C781   1.490       .  S
C539        C949   1.495       .  S
C540        C846   1.489       .  S
C541       H2042   1.095       .  S
C541        C547   1.532       .  S
C541        C546   1.536       .  S
C541        C545   1.536       .  S
H542       C2041   1.095       .  S
C543        H544   1.104       .  S
C543        C549   1.564       .  S
C543        C548   1.553       .  S
C543        C550   1.555       .  S
C545        C548   1.384       .  D
C546        C549   1.376       .  D
C546       C2592   1.501   1_455  S
C547        C550   1.366       .  D
C547       C2161   1.503   1_455  S
C548        C762   1.489       .  S
C549        C790   1.491       .  S
C550        C734   1.480       .  S
C551        C557   1.525       .  S
C551        C556   1.546       .  S
C551        C555   1.535       .  S
C553        H554   1.094       .  S
C553        C559   1.576       .  S
C553        C558   1.543       .  S
C553        C560   1.562       .  S
C555        C558   1.358       .  D
C556        C559   1.398       .  D
C557        C560   1.364       .  D
C557        C593   1.513       .  S
C558        C753   1.471       .  S
C559        C706   1.524       .  S
C560        C930   1.470       .  S
C561       H3062   1.094   1_545  S
C561        C567   1.539       .  S
C561        C566   1.529       .  S
C561        C565   1.529       .  S
H562       C3061   1.093       .  S
C563        H564   1.111       .  S
C563        C569   1.565       .  S
C563        C568   1.576       .  S
C563        C570   1.572       .  S
C565        C568   1.372       .  D
C565       C3594   1.517   1_445  S
C566        C569   1.362       .  D
C566       C1121   1.495   1_545  S
C567        C570   1.377       .  D
C567       C2134   1.497   1_455  S
C568        C809   1.482       .  S
C569        C669   1.486       .  S
C570        C725   1.505       .  S
C571       H1072   1.094       .  S
C571        C577   1.532       .  S
C571        C576   1.525       .  S
C571        C575   1.540       .  S
H572       C1071   1.093   1_556  S
C573        H574   1.100       .  S
C573        C579   1.555       .  S
C573        C578   1.567       .  S
C573        C580   1.563       .  S
C575        C578   1.396       .  D
C575       C1147   1.527   1_545  S
C576        C579   1.363       .  D
C576       C1591   1.496   1_545  S
C577        C580   1.366       .  D
C578        C678   1.503       .  S
C579        C874   1.473       .  S
C580        C697   1.486       .  S
O581       Cu589   1.912       .  S
O581        C591   1.265       .  A
O582       Cu589   1.910       .  S
O582        C592   1.265       .  A
O583       Cu589   1.936       .  S
O583        C593   1.268       .  A
O584       Cu589   1.927       .  S
O584        C594   1.266       .  A
O585       Cu590   2.131       .  S
O585        C594   1.289       .  A
O586       Cu590   2.120       .  S
O586        C593   1.289       .  A
O587       Cu590   2.102       .  S
O587        C592   1.284       .  A
O588       Cu590   2.093       .  S
O588        C591   1.286       .  A
Cu589      Cu590   2.332       .  S
C591       C1576   1.495       .  S
C592       C2546   1.500       .  S
C594       C3565   1.518       .  S
O595       Cu603   2.097       .  S
O595        C605   1.283       .  A
O596       Cu603   2.138       .  S
O596        C606   1.290       .  A
O597       Cu603   2.075       .  S
O597        C607   1.281       .  A
O598       Cu603   2.092       .  S
O598        C608   1.284       .  A
O599       Cu604   1.905       .  S
O599        C608   1.264       .  A
O600       Cu604   1.908       .  S
O600        C607   1.264       .  A
O601       Cu604   1.922       .  S
O601        C606   1.266       .  A
O602       Cu604   1.914       .  S
O602        C605   1.266       .  A
Cu603      Cu604   2.335       .  S
C605       C1515   1.503       .  S
C606       C2535   1.517       .  S
C608       C3526   1.497       .  S
O609       Cu617   2.111       .  S
O609        C619   1.287       .  A
O610       Cu617   2.129       .  S
O610        C620   1.288       .  A
O611       Cu617   2.092       .  S
O611        C621   1.285       .  A
O612       Cu617   2.133       .  S
O612        C622   1.289       .  A
O613       Cu618   1.898       .  S
O613        C622   1.263       .  A
O614       Cu618   1.899       .  S
O614        C621   1.263       .  A
O615       Cu618   1.927       .  S
O615        C620   1.266       .  A
O616       Cu618   1.926       .  S
O616        C619   1.266       .  A
Cu617      Cu618   2.327       .  S
C620       C1525   1.543       .  S
C621       C1066   1.493   1_556  S
O623       Cu631   1.899       .  S
O623        C633   1.265       .  A
O624       Cu631   1.897       .  S
O624        C634   1.263       .  A
O625       Cu631   1.912       .  S
O625        C635   1.265       .  A
O626       Cu631   1.911       .  S
O626        C636   1.263       .  A
O627       Cu632   2.112       .  S
O627        C636   1.289       .  A
O628       Cu632   2.104       .  S
O628        C635   1.286       .  A
O629       Cu632   2.094       .  S
O629        C634   1.283       .  A
O630       Cu632   2.082       .  S
O630        C633   1.283       .  A
Cu631      Cu632   2.327       .  S
C634       C2067   1.493   1_556  S
C636       C2527   1.503       .  S
O637       Cu645   2.133       .  S
O637        C647   1.289       .  A
O638       Cu645   2.123       .  S
O638        C648   1.287       .  A
O639       Cu645   2.106       .  S
O639        C649   1.287       .  A
O640       Cu645   2.107       .  S
O640        C650   1.288       .  A
O641       Cu646   1.902       .  S
O641        C650   1.262       .  A
O642       Cu646   1.892       .  S
O642        C649   1.261       .  A
O643       Cu646   1.915       .  S
O643        C648   1.266       .  A
O644       Cu646   1.922       .  S
O644        C647   1.267       .  A
Cu645      Cu646   2.333       .  S
C647       C1075   1.528   1_556  S
C650       C1516   1.507       .  S
O651       Cu659   2.107       .  S
O651        C661   1.287       .  A
O652       Cu659   2.113       .  S
O652        C662   1.288       .  A
O653       Cu659   2.097       .  S
O653        C663   1.286       .  A
O654       Cu659   2.099       .  S
O654        C664   1.284       .  A
O655       Cu660   1.922       .  S
O655        C664   1.267       .  A
O656       Cu660   1.928       .  S
O656        C663   1.267       .  A
O657       Cu660   1.912       .  S
O657        C662   1.264       .  A
O658       Cu660   1.924       .  S
O658        C661   1.266       .  A
Cu659      Cu660   2.315       .  S
C661       C2047   1.503   1_556  S
C663       C2537   1.502       .  S
C665        C670   1.396       .  A
C665        H675   1.085   1_554  S
C666        C667   1.410       .  A
C666        C671   1.477       .  S
C667        C668   1.401       .  A
C667        N672   1.428   1_545  S
C668        C669   1.400       .  A
C668        H673   1.075   1_545  S
C670        N674   1.421   1_554  S
C671       C1676   1.403   1_545  A
C671        C680   1.395       .  A
N672        O687   1.262   1_565  A
N672        O688   1.261       .  A
N674        O685   1.262       .  A
N674        O686   1.262       .  A
C676       C1671   1.401       .  A
C676        C677   1.394       .  A
C677       C1678   1.400       .  A
C678       C1677   1.403   1_545  A
C678        C679   1.428       .  A
C679        C680   1.401       .  A
C679        N683   1.429       .  S
C680        H684   1.085       .  S
N681        O691   1.262   1_554  A
N681        O692   1.257       .  A
N683        O689   1.261       .  A
N683        O690   1.262       .  A
C693        C698   1.405       .  A
C693        H703   1.083   1_554  S
C694        C695   1.404       .  A
C694        C699   1.485       .  S
C695        C696   1.404       .  A
C695        N700   1.429       .  S
C696        C697   1.407       .  A
C696        H701   1.084       .  S
C698        N702   1.447   1_554  S
C699        C708   1.395       .  A
N700        O715   1.262       .  A
N700        O716   1.262       .  A
N702        O713   1.263       .  A
N702        O714   1.259       .  A
C704        C705   1.404       .  A
C704        N709   1.430       .  S
C705        H710   1.077       .  S
C706        C707   1.430       .  A
C707        C708   1.403       .  A
C707        N711   1.426       .  S
C708        H712   1.084       .  S
N709        O719   1.261       .  A
N709        O720   1.262       .  A
N711        O717   1.263       .  A
N711        O718   1.260       .  A
C721        C722   1.401       .  A
C721        C726   1.405       .  A
C722        C723   1.414       .  A
C722        C727   1.497       .  S
C723        C724   1.404       .  A
C723       N2728   1.428       .  S
C724        C725   1.405       .  A
C724       H2729   1.083       .  S
C725        C726   1.424       .  A
C727        C732   1.418       .  A
C727       C2736   1.410       .  A
N728       C2723   1.428       .  S
N728        O743   1.262       .  A
N728        O744   1.262       .  A
H729       C2724   1.083       .  S
N730        O741   1.261       .  A
N730        O742   1.258       .  A
C732        C733   1.400       .  A
C732        N737   1.429       .  S
C733        C734   1.397       .  A
C733        H738   1.085       .  S
C734       C2735   1.407       .  A
C735       C2734   1.406       .  A
C735        C736   1.406       .  A
C735        N739   1.429       .  S
C736       C2727   1.409       .  A
C736        H740   1.083       .  S
N737        O747   1.262       .  A
N737        O748   1.262       .  A
N739        O745   1.261       .  A
N739        O746   1.261       .  A
C749        C754   1.395   1_554  A
C749        H759   1.082   1_554  S
C750        C751   1.425       .  A
C750        C755   1.486       .  S
C751        C752   1.405       .  A
C751        N756   1.445       .  S
C752        C753   1.397       .  A
C752        H757   1.083       .  S
C754        N758   1.429       .  S
C755        C764   1.400       .  A
N756        O771   1.263       .  A
N756        O772   1.263       .  A
N758        O769   1.262       .  A
N758        O770   1.262       .  A
C760        C761   1.395       .  A
C760        N765   1.428       .  S
C761        H766   1.082       .  S
C762        C763   1.420       .  A
C763        C764   1.395       .  A
C763        N767   1.430       .  S
C764        H768   1.084       .  S
N765        O775   1.261       .  A
N765        O776   1.262       .  A
N767        O773   1.262       .  A
N767        O774   1.261       .  A
C777        C778   1.399       .  A
C777        C782   1.405       .  A
C777        H787   1.084   1_455  S
C778        C779   1.407       .  A
C778        C783   1.486       .  S
C779        C780   1.408       .  A
C779        N784   1.430       .  S
C780        C781   1.409       .  A
C780        H785   1.084       .  S
C781        C782   1.417       .  A
C782        N786   1.440   1_455  S
C783        C788   1.407       .  A
C783        C792   1.404       .  A
N784        O799   1.261       .  A
N784        O800   1.263       .  A
N786        O797   1.263       .  A
N786        O798   1.260       .  A
C788        C789   1.394       .  A
C788        N793   1.428       .  S
C789        C790   1.401       .  A
C789        H794   1.082       .  S
C790        C791   1.420       .  A
C791        C792   1.407       .  A
C791       N2795   1.432       .  S
C792       H2796   1.084       .  S
N793        O803   1.261       .  A
N793        O804   1.262       .  A
N795       C2791   1.432       .  S
N795        O801   1.262       .  A
N795        O802   1.262       .  A
H796       C2792   1.084       .  S
C805       C2806   1.411       .  A
C805        C810   1.408       .  A
C805        H815   1.083       .  S
C806       C2805   1.411   1_455  A
C806        C807   1.413       .  A
C806        C811   1.493       .  S
C807        C808   1.394       .  A
C807        N812   1.429       .  S
C808        C809   1.393       .  A
C808        H813   1.073       .  S
C809       C2810   1.410   1_455  A
C810       C2809   1.409       .  A
C810        N814   1.431       .  S
C811        C816   1.411       .  A
C811       C1820   1.405   1_545  A
N812        O827   1.262   1_545  A
N812        O828   1.262       .  A
N814        O825   1.261       .  A
N814        O826   1.261       .  A
C816        C817   1.400       .  A
C816        N821   1.427       .  S
C817        C818   1.402       .  A
C817        H822   1.082       .  S
C818       C1819   1.418   1_545  A
C819       C1818   1.417       .  A
C819        C820   1.404       .  A
C819        N823   1.432       .  S
C820       C1811   1.405       .  A
C820        H824   1.083       .  S
N821       O2831   1.262   1_455  A
N821        O832   1.262       .  A
N823        O829   1.262       .  A
N823        O830   1.262       .  A
O831       N2821   1.262       .  A
C833       C2834   1.409       .  A
C833        C838   1.407       .  A
C833        H843   1.083       .  S
C834       C2833   1.410   1_455  A
C834        C835   1.416       .  A
C834        C839   1.495       .  S
C835        C836   1.396       .  A
C835        N840   1.430       .  S
C836        C837   1.390       .  A
C836        H841   1.081       .  S
C837       C2838   1.409   1_455  A
C838       C2837   1.408       .  A
C838        N842   1.428       .  S
C839        C844   1.413       .  A
C839        C848   1.406       .  A
N840        O855   1.262       .  A
N840        O856   1.262       .  A
N842        O853   1.261       .  A
N842        O854   1.259       .  A
C844        C845   1.400       .  A
C844       N2849   1.428       .  S
C845        C846   1.399       .  A
C845       H2850   1.081       .  S
C846        C847   1.419       .  A
C847        C848   1.402       .  A
C847        N851   1.433       .  S
C848        H852   1.084       .  S
N849       C2844   1.428       .  S
N849        O859   1.262       .  A
N849        O860   1.261       .  A
H850       C2845   1.081       .  S
N851        O857   1.260       .  A
N851        O858   1.260       .  A
C861        C862   1.406       .  A
C861        C866   1.408       .  A
C861        H871   1.086       .  S
C862       C1863   1.416       .  A
C862        C867   1.501       .  S
C863       C1862   1.413       .  A
C863        C864   1.396       .  A
C863        N868   1.429       .  S
C864       C1865   1.397       .  A
C864        H869   1.069       .  S
C865       C1864   1.389       .  A
C865        C866   1.420       .  A
C866        N870   1.427       .  S
C867        C872   1.420       .  A
C867       C1876   1.410       .  A
N868        O883   1.262       .  A
N868        O884   1.262       .  A
N870        O881   1.260       .  A
N870        O882   1.262       .  A
C872        C873   1.400       .  A
C872        N877   1.428       .  S
C873        C874   1.395       .  A
C873        H878   1.084       .  S
C874       C1875   1.404       .  A
C875       C1874   1.403       .  A
C875        C876   1.402       .  A
C875        N879   1.430       .  S
C876       C1867   1.410       .  A
C876        H880   1.081       .  S
N877        O887   1.262       .  A
N877        O888   1.262       .  A
N879        O885   1.262       .  A
N879        O886   1.262       .  A
C889        C890   1.399       .  A
C889        C894   1.408       .  A
C889        H899   1.087       .  S
C890        C891   1.403       .  A
C890        C895   1.475       .  S
C891        C892   1.380       .  A
C891        N896   1.427       .  S
C892        C893   1.388       .  A
C892        H897   1.160       .  S
C893        C894   1.434       .  A
C894        N898   1.445       .  S
C895       C1900   1.403       .  A
C895        C904   1.390       .  A
N896        O911   1.262       .  A
N896        O912   1.262   1_545  A
N898        O909   1.264       .  A
N898        O910   1.259       .  A
C900       C1895   1.402       .  A
C900        C901   1.399       .  A
C900        N905   1.435       .  S
C901       C1902   1.404       .  A
C901        H906   1.072       .  S
C902       C1901   1.405       .  A
C902        C903   1.440       .  A
C903        C904   1.403       .  A
C903        N907   1.428       .  S
C904        H908   1.085       .  S
N905        O915   1.263       .  A
N905        O916   1.262       .  A
N907        O913   1.261       .  A
N907        O914   1.263       .  A
C917        C918   1.393       .  A
C917        C922   1.396       .  A
C917        H927   1.084       .  S
C918        C919   1.411       .  A
C918        C923   1.482       .  S
C919        C920   1.400       .  A
C919        N924   1.430       .  S
C920        C921   1.407       .  A
C920        H925   1.081       .  S
C921        C922   1.426       .  A
C922        N926   1.432       .  S
C923        C928   1.409       .  A
C923        C932   1.408       .  A
N924        O939   1.262       .  A
N924        O940   1.262       .  A
N926        O937   1.264       .  A
N926        O938   1.254       .  A
C928        C929   1.404       .  A
C928        N933   1.430       .  S
C929        C930   1.404       .  A
C929        H934   1.083       .  S
C930        C931   1.402       .  A
C931        C932   1.396       .  A
C931        N935   1.431       .  S
C932        H936   1.084       .  S
N933        O943   1.263       .  A
N933        O944   1.261       .  A
N935        O941   1.262       .  A
N935        O942   1.261       .  A
C945        C946   1.402       .  A
C945        C950   1.404       .  A
C945        H955   1.080       .  S
C946        C947   1.418       .  A
C946        C951   1.507       .  S
C947        C948   1.396       .  A
C947        N952   1.421       .  S
C948        C949   1.395       .  A
C948        H953   1.083       .  S
C949        C950   1.422       .  A
C950        N954   1.429       .  S
C951        C956   1.424       .  A
C951        C960   1.408       .  A
N952        O967   1.262       .  A
N952        O968   1.261       .  A
N954        O965   1.262       .  A
N954        O966   1.260       .  A
C956        C957   1.402       .  A
C956        N961   1.429       .  S
C957        C958   1.396       .  A
C957        H962   1.083       .  S
C958        C959   1.410       .  A
C959        C960   1.401       .  A
C959        N963   1.429       .  S
C960        H964   1.081       .  S
N961        O971   1.263       .  A
N961        O972   1.261       .  A
N963        O969   1.262       .  A
N963        O970   1.262       .  A
C973        C974   1.403       .  A
C973        C978   1.397       .  A
C973        H983   1.082       .  S
C974        C975   1.417       .  A
C974        C979   1.490       .  S
C975        C976   1.400       .  A
C975        N980   1.427       .  S
C976        C977   1.394       .  A
C976        H981   1.078       .  S
C977        C978   1.400       .  A
C978        N982   1.418       .  S
C979        C984   1.412       .  A
C979        C988   1.400       .  A
N980        O995   1.262       .  A
N980        O996   1.262       .  A
N982        O993   1.262       .  A
N982        O994   1.260       .  A
C984        C985   1.396       .  A
C984        N989   1.427       .  S
C985        C986   1.398       .  A
C985        H990   1.082       .  S
C986        C987   1.428       .  A
C987        C988   1.409       .  A
C987        N991   1.437       .  S
C988        H992   1.084       .  S
N989        O999   1.262       .  A
N989       O1000   1.261       .  A
N991        O997   1.256       .  A
N991        O998   1.263       .  A
C1001      H1002   1.092       .  S
C1001      C1007   1.534       .  S
C1001      C1006   1.537       .  S
C1001      C1005   1.532       .  S
C1003      H1004   1.110       .  S
C1003      C1009   1.567       .  S
C1003      C1008   1.568       .  S
C1003      C1010   1.569       .  S
C1005      C1008   1.370       .  D
C1005      C1148   1.508       .  S
C1006      C1009   1.380       .  D
C1006      C1107   1.502       .  S
C1007      C1010   1.369       .  D
C1007      C1162   1.507       .  S
C1008      C1458   1.484       .  S
C1009      C1421   1.502       .  S
C1010      C1486   1.496       .  S
C1011      C1017   1.531       .  S
C1011      C1016   1.528       .  S
C1011      C1015   1.530       .  S
C1013      H1014   1.111       .  S
C1013      C1019   1.578       .  S
C1013      C1018   1.575       .  S
C1013      C1020   1.551       .  S
C1015      C1018   1.372       .  D
C1016      C1019   1.366       .  D
C1017      C1020   1.366       .  D
C1017      C1133   1.488       .  S
C1018      C1365   1.494       .  S
C1019      C1393   1.489       .  S
C1020      C1477   1.477       .  S
C1021      H2022   1.091       .  S
C1021      C1027   1.527       .  S
C1021      C1026   1.533       .  S
C1021      C1025   1.549       .  S
H1022      C2021   1.091       .  S
C1023      H1024   1.088       .  S
C1023      C1029   1.558       .  S
C1023      C1028   1.573       .  S
C1023      C1030   1.562       .  S
C1025      C1028   1.416       .  D
C1026      C1029   1.365       .  D
C1026      C2108   1.494   1_455  S
C1027      C1030   1.358       .  D
C1027      C3136   1.502   1_455  S
C1028      C1402   1.526       .  S
C1029      C1318   1.495       .  S
C1030      C1337   1.480       .  S
C1031      H3032   1.094       .  S
C1031      C1037   1.531       .  S
C1031      C1036   1.542       .  S
C1031      C1035   1.535       .  S
H1032      C3031   1.094       .  S
C1033      H1034   1.104       .  S
C1033      C1039   1.560       .  S
C1033      C1038   1.566       .  S
C1033      C1040   1.568       .  S
C1035      C1038   1.374       .  D
C1035      C3106   1.517   1_455  S
C1036      C1039   1.392       .  D
C1036      C1122   1.520       .  S
C1037      C1040   1.368       .  D
C1037      C3163   1.502   1_455  S
C1038      C1281   1.489       .  S
C1039      C1449   1.497       .  S
C1040      C1346   1.492       .  S
C1041      H3542   1.095       .  S
C1041      C1047   1.531       .  S
C1041      C1046   1.535       .  S
C1041      C1045   1.537       .  S
H1042      C3541   1.095       .  S
C1043      H1044   1.103       .  S
C1043      C1049   1.564       .  S
C1043      C1048   1.551       .  S
C1043      C1050   1.554       .  S
C1045      C1048   1.383       .  D
C1045      C1619   1.514   1_554  S
C1046      C1049   1.376       .  D
C1046      C3092   1.499   1_455  S
C1047      C1050   1.365       .  D
C1047      C3661   1.503   1_454  S
C1048      C1262   1.488       .  S
C1049      C1290   1.491       .  S
C1050      C1234   1.477       .  S
C1051      H1552   1.093   1_554  S
C1051      C1057   1.526       .  S
C1051      C1056   1.547       .  S
C1051      C1055   1.536       .  S
H1052      C1551   1.093       .  S
C1053      H1054   1.091       .  S
C1053      C1059   1.579       .  S
C1053      C1058   1.542       .  S
C1053      C1060   1.562       .  S
C1055      C1058   1.359       .  D
C1055      C1649   1.494   1_554  S
C1056      C1059   1.401       .  D
C1056      C1664   1.519   1_554  S
C1057      C1060   1.365       .  D
C1057      C1093   1.515       .  S
C1058      C1253   1.473       .  S
C1059      C1206   1.529       .  S
C1060      C1430   1.472       .  S
C1061      H2562   1.093       .  S
C1061      C1067   1.538       .  S
C1061      C1066   1.531       .  S
C1061      C1065   1.526       .  S
H1062      C2561   1.094       .  S
C1063      H1064   1.111       .  S
C1063      C1069   1.564       .  S
C1063      C1068   1.576       .  S
C1063      C1070   1.571       .  S
C1065      C1068   1.370       .  D
C1065      C2094   1.517   1_455  S
C1066      C1069   1.363       .  D
C1067      C1070   1.376       .  D
C1067      C3634   1.493   1_454  S
C1068      C1309   1.477       .  S
C1069      C1169   1.487       .  S
C1070      C1225   1.502       .  S
C1071      C1077   1.533       .  S
C1071      C1076   1.525       .  S
C1071      C1075   1.539       .  S
C1073      H1074   1.100       .  S
C1073      C1079   1.554       .  S
C1073      C1078   1.567       .  S
C1073      C1080   1.560       .  S
C1075      C1078   1.396       .  D
C1076      C1079   1.362       .  D
C1077      C1080   1.366       .  D
C1077      C1635   1.499   1_554  S
C1078      C1178   1.499       .  S
C1079      C1374   1.472       .  S
C1080      C1197   1.484       .  S
O1081     Cu1089   1.912       .  S
O1081      C1091   1.266       .  A
O1082     Cu1089   1.910       .  S
O1082      C1092   1.265       .  A
O1083     Cu1089   1.936       .  S
O1083      C1093   1.268       .  A
O1084     Cu1089   1.930       .  S
O1084      C1094   1.267       .  A
O1085     Cu1090   2.130       .  S
O1085      C1094   1.290       .  A
O1086     Cu1090   2.126       .  S
O1086      C1093   1.289       .  A
O1087     Cu1090   2.103       .  S
O1087      C1092   1.285       .  A
O1088     Cu1090   2.094       .  S
O1088      C1091   1.285       .  A
Cu1089    Cu1090   2.332       .  S
C1092      C3046   1.500       .  S
C1094      C2065   1.518   1_565  S
O1095     Cu1103   2.099       .  S
O1095      C1105   1.284       .  A
O1096     Cu1103   2.139       .  S
O1096      C1106   1.291       .  A
O1097     Cu1103   2.078       .  S
O1097      C1107   1.281       .  A
O1098     Cu1103   2.092       .  S
O1098      C1108   1.284       .  A
O1099     Cu1104   1.907       .  S
O1099      C1108   1.264       .  A
O1100     Cu1104   1.909       .  S
O1100      C1107   1.264       .  A
O1101     Cu1104   1.919       .  S
O1101      C1106   1.265       .  A
O1102     Cu1104   1.912       .  S
O1102      C1105   1.265       .  A
Cu1103    Cu1104   2.337       .  S
C1106      C3035   1.517       .  S
C1108      C2026   1.498   1_565  S
O1109     Cu1117   2.107       .  S
O1109      C1119   1.287       .  A
O1110     Cu1117   2.128       .  S
O1110      C1120   1.288       .  A
O1111     Cu1117   2.091       .  S
O1111      C1121   1.285       .  A
O1112     Cu1117   2.130       .  S
O1112      C1122   1.288       .  A
O1113     Cu1118   1.914       .  S
O1113      C1122   1.265       .  A
O1114     Cu1118   1.911       .  S
O1114      C1121   1.264       .  A
O1115     Cu1118   1.932       .  S
O1115      C1120   1.267       .  A
O1116     Cu1118   1.934       .  S
O1116      C1119   1.268       .  A
Cu1117    Cu1118   2.321       .  S
C1119      C1545   1.515       .  S
O1123     Cu1131   1.896       .  S
O1123      C1133   1.264       .  A
O1124     Cu1131   1.895       .  S
O1124      C1134   1.263       .  A
O1125     Cu1131   1.910       .  S
O1125      C1135   1.265       .  A
O1126     Cu1131   1.909       .  S
O1126      C1136   1.263       .  A
O1127     Cu1132   2.114       .  S
O1127      C1136   1.289       .  A
O1128     Cu1132   2.105       .  S
O1128      C1135   1.286       .  A
O1129     Cu1132   2.096       .  S
O1129      C1134   1.282       .  A
O1130     Cu1132   2.082       .  S
O1130      C1133   1.283       .  A
Cu1131    Cu1132   2.333       .  S
C1134      C3567   1.496       .  S
C1135      C1577   1.499       .  S
C1136      C3027   1.503       .  S
O1137     Cu1145   2.129       .  S
O1137      C1147   1.289       .  A
O1138     Cu1145   2.122       .  S
O1138      C1148   1.287       .  A
O1139     Cu1145   2.108       .  S
O1139      C1149   1.287       .  A
O1140     Cu1145   2.108       .  S
O1140      C1150   1.287       .  A
O1141     Cu1146   1.899       .  S
O1141      C1150   1.262       .  A
O1142     Cu1146   1.890       .  S
O1142      C1149   1.261       .  A
O1143     Cu1146   1.910       .  S
O1143      C1148   1.265       .  A
O1144     Cu1146   1.918       .  S
O1144      C1147   1.266       .  A
Cu1145    Cu1146   2.335       .  S
C1149      C1555   1.493       .  S
O1151     Cu1159   2.111       .  S
O1151      C1161   1.287       .  A
O1152     Cu1159   2.115       .  S
O1152      C1162   1.288       .  A
O1153     Cu1159   2.098       .  S
O1153      C1163   1.286       .  A
O1154     Cu1159   2.101       .  S
O1154      C1164   1.284       .  A
O1155     Cu1160   1.920       .  S
O1155      C1164   1.267       .  A
O1156     Cu1160   1.928       .  S
O1156      C1163   1.267       .  A
O1157     Cu1160   1.913       .  S
O1157      C1162   1.264       .  A
O1158     Cu1160   1.924       .  S
O1158      C1161   1.266       .  A
Cu1159    Cu1160   2.316       .  S
C1161      C3547   1.505       .  S
C1163      C3037   1.503       .  S
C1164      C1556   1.518       .  S
C1165      C1666   1.395       .  A
C1165      C1170   1.397       .  A
C1165      H1175   1.085       .  S
C1166      C1665   1.397       .  A
C1166      C1167   1.408       .  A
C1166      C1171   1.478       .  S
C1167      C1168   1.400       .  A
C1167      N1172   1.428       .  S
C1168      C1169   1.400       .  A
C1168      H1173   1.074       .  S
C1169      C1670   1.413       .  A
C1170      C1669   1.415       .  A
C1170      N1174   1.425       .  S
C1171      C1180   1.395       .  A
N1172      O1187   1.262       .  A
N1172      O1188   1.261       .  A
N1174      O1185   1.261       .  A
N1174      O1186   1.262       .  A
C1176      C1177   1.397       .  A
C1176      N1681   1.419       .  S
C1177      H1682   1.082       .  S
C1178      C1179   1.428       .  A
C1179      C1180   1.401       .  A
C1179      N1183   1.430       .  S
C1180      H1184   1.085       .  S
N1181      C1676   1.424       .  S
N1181      O1191   1.262       .  A
N1181      O1192   1.257       .  A
H1182      C1677   1.081       .  S
N1183      O1189   1.261       .  A
N1183      O1190   1.263       .  A
C1193      C1694   1.395       .  A
C1193      C1198   1.405       .  A
C1193      H1203   1.083       .  S
C1194      C1693   1.395       .  A
C1194      C1195   1.403       .  A
C1194      C1199   1.481       .  S
C1195      C1196   1.404       .  A
C1195      N1200   1.429       .  S
C1196      C1197   1.407       .  A
C1196      H1201   1.083       .  S
C1197      C1698   1.425       .  A
C1198      C1697   1.426       .  A
C1198      N1202   1.447       .  S
C1199      C1704   1.402   1_554  A
C1199      C1208   1.394       .  A
N1200      O1215   1.262       .  A
N1200      O1216   1.262       .  A
N1202      O1213   1.263       .  A
N1202      O1214   1.259       .  A
C1204      C1699   1.402       .  A
C1204      C1205   1.403       .  A
C1204      N1209   1.430       .  S
C1205      C1706   1.412       .  A
C1205      H1210   1.077       .  S
C1206      C1705   1.412   1_554  A
C1206      C1207   1.431       .  A
C1207      C1208   1.402       .  A
C1207      N1211   1.425       .  S
C1208      H1212   1.084       .  S
N1209      O1219   1.261       .  A
N1209      O1220   1.262       .  A
N1211      O1217   1.263       .  A
N1211      O1218   1.261       .  A
C1221      C1222   1.399       .  A
C1221      C1226   1.404   1_554  A
C1221      H1731   1.084   1_554  S
C1222      C1223   1.412       .  A
C1222      C1227   1.493       .  S
C1223      C1224   1.403       .  A
C1223      N3228   1.428       .  S
C1224      C1225   1.404       .  A
C1224      H3229   1.083       .  S
C1225      C1226   1.425   1_554  A
C1226      N1730   1.430       .  S
C1227      C1232   1.417       .  A
C1227      C3236   1.409       .  A
N1228      C3223   1.428       .  S
N1228      O1243   1.262       .  A
N1228      O1244   1.262       .  A
H1229      C3224   1.083       .  S
N1230      C1726   1.430       .  S
N1230      O1241   1.261       .  A
N1230      O1242   1.257       .  A
H1231      C1721   1.084       .  S
C1232      C1233   1.399       .  A
C1232      N1237   1.428       .  S
C1233      C1234   1.396       .  A
C1233      H1238   1.085       .  S
C1234      C3235   1.407       .  A
C1235      C3234   1.406       .  A
C1235      C1236   1.407       .  A
C1235      N1239   1.429       .  S
C1236      C3227   1.409       .  A
C1236      H1240   1.083       .  S
N1237      O1247   1.262   1_554  A
N1237      O1248   1.262       .  A
N1239      O1245   1.261       .  A
N1239      O1246   1.261       .  A
C1249      C1750   1.403       .  A
C1249      C1254   1.396       .  A
C1249      H1259   1.083       .  S
C1250      C1749   1.402   1_554  A
C1250      C1251   1.425       .  A
C1250      C1255   1.488       .  S
C1251      C1252   1.405       .  A
C1251      N1256   1.443       .  S
C1252      C1253   1.397       .  A
C1252      H1257   1.084       .  S
C1253      C1754   1.406   1_554  A
C1254      C1753   1.406       .  A
C1254      N1258   1.428       .  S
C1255      C1760   1.413   1_554  A
C1255      C1264   1.401       .  A
N1256      O1271   1.263       .  A
N1256      O1272   1.263       .  A
N1258      O1269   1.262       .  A
N1258      O1270   1.262       .  A
C1260      C1755   1.412       .  A
C1260      C1261   1.396       .  A
C1260      N1265   1.428       .  S
C1261      C1762   1.401       .  A
C1261      H1266   1.082       .  S
C1262      C1761   1.399   1_554  A
C1262      C1263   1.420       .  A
C1263      C1264   1.395       .  A
C1263      N1267   1.430       .  S
C1264      H1268   1.084       .  S
N1265      O1275   1.261       .  A
N1265      O1276   1.262       .  A
N1267      O1273   1.263       .  A
N1267      O1274   1.262       .  A
C1277      C1278   1.399       .  A
C1277      C1282   1.404       .  A
C1277      H1287   1.084   1_455  S
C1278      C1279   1.407       .  A
C1278      C1283   1.485       .  S
C1279      C1280   1.407       .  A
C1279      N1284   1.431       .  S
C1280      C1281   1.409       .  A
C1280      H1285   1.084       .  S
C1281      C1282   1.417       .  A
C1282      N1286   1.439   1_455  S
C1283      C1288   1.406       .  A
C1283      C1292   1.403       .  A
N1284      O1299   1.261       .  A
N1284      O1300   1.263       .  A
N1286      O1297   1.263       .  A
N1286      O1298   1.259       .  A
C1288      C1289   1.393       .  A
C1288      N1293   1.428       .  S
C1289      C1290   1.402       .  A
C1289      H1294   1.082       .  S
C1290      C1291   1.421       .  A
C1291      C1292   1.406       .  A
C1291      N3295   1.432       .  S
C1292      H3296   1.084       .  S
N1293      O1303   1.261       .  A
N1293      O1304   1.262       .  A
N1295      C3291   1.433       .  S
N1295      O1301   1.262       .  A
N1295      O1302   1.262       .  A
H1296      C3292   1.084       .  S
C1305      C3306   1.410       .  A
C1305      C1310   1.409       .  A
C1305      H1315   1.083       .  S
C1306      C3305   1.411   1_455  A
C1306      C1307   1.412       .  A
C1306      C1311   1.490       .  S
C1307      C1308   1.392       .  A
C1307      N1312   1.428       .  S
C1308      C1309   1.391       .  A
C1308      H1313   1.073       .  S
C1309      C3310   1.409   1_455  A
C1310      C3309   1.409       .  A
C1310      N1314   1.431       .  S
C1311      C1316   1.410       .  A
N1312      O1327   1.262       .  A
N1312      O1328   1.262       .  A
N1314      O1325   1.261       .  A
N1314      O1326   1.262       .  A
C1316      C1317   1.398       .  A
C1316      N1321   1.428       .  S
C1317      C1318   1.402       .  A
C1317      H1322   1.081       .  S
C1319      C1320   1.405       .  A
C1319      N1323   1.432       .  S
C1320      H1324   1.084       .  S
N1321      O3331   1.262   1_455  A
N1321      O1332   1.262       .  A
N1323      O1329   1.262       .  A
N1323      O1330   1.262       .  A
O1331      N3321   1.262       .  A
C1333      C3334   1.410       .  A
C1333      C1338   1.409       .  A
C1333      H1343   1.082       .  S
C1334      C3333   1.410   1_455  A
C1334      C1335   1.418       .  A
C1334      C1339   1.498       .  S
C1335      C1336   1.398       .  A
C1335      N1340   1.428       .  S
C1336      C1337   1.392       .  A
C1336      H1341   1.084       .  S
C1337      C3338   1.408   1_455  A
C1338      C3337   1.409       .  A
C1338      N1342   1.429       .  S
C1339      C1344   1.415       .  A
C1339      C1348   1.406       .  A
N1340      O1355   1.262       .  A
N1340      O1356   1.261       .  A
N1342      O1353   1.261       .  A
N1342      O1354   1.260       .  A
C1344      C1345   1.401       .  A
C1344      N3349   1.428       .  S
C1345      C1346   1.399       .  A
C1345      H3350   1.081       .  S
C1346      C1347   1.419       .  A
C1347      C1348   1.403       .  A
C1347      N1351   1.433       .  S
C1348      H1352   1.083       .  S
N1349      C3344   1.428       .  S
N1349      O1359   1.262       .  A
N1349      O1360   1.261       .  A
H1350      C3345   1.080       .  S
N1351      O1357   1.260       .  A
N1351      O1358   1.260       .  A
C1361      C1362   1.406       .  A
C1361      C1366   1.407       .  A
C1361      H1371   1.083       .  S
C1362      C1367   1.495       .  S
C1363      C1364   1.398       .  A
C1363      N1368   1.429       .  S
C1364      H1369   1.076       .  S
C1365      C1366   1.418       .  A
C1366      N1370   1.428       .  S
C1367      C1372   1.417       .  A
N1368      O1383   1.262   1_545  A
N1368      O1384   1.262       .  A
N1370      O1381   1.260       .  A
N1370      O1382   1.261       .  A
C1372      C1373   1.398       .  A
C1372      N1377   1.428       .  S
C1373      C1374   1.395       .  A
C1373      H1378   1.083       .  S
C1375      C1376   1.403       .  A
C1375      N1379   1.430   1_545  S
C1376      H1380   1.080   1_545  S
N1377      O1387   1.262       .  A
N1377      O1388   1.262       .  A
N1379      O1385   1.262       .  A
N1379      O1386   1.261       .  A
C1389      C1390   1.399       .  A
C1389      C1394   1.409       .  A
C1389      H1399   1.084       .  S
C1390      C1391   1.402       .  A
C1390      C1395   1.475       .  S
C1391      C1392   1.388       .  A
C1391      N1396   1.428       .  S
C1392      C1393   1.396       .  A
C1392      H1397   1.066       .  S
C1393      C1394   1.433       .  A
C1394      N1398   1.445       .  S
C1395      C1404   1.391       .  A
N1396      O1411   1.262       .  A
N1396      O1412   1.262       .  A
N1398      O1409   1.264       .  A
N1398      O1410   1.259       .  A
C1400      C1401   1.400       .  A
C1400      N1405   1.434   1_545  S
C1401      H1406   1.071   1_545  S
C1402      C1403   1.442       .  A
C1403      C1404   1.403       .  A
C1403      N1407   1.429       .  S
C1404      H1408   1.085       .  S
N1405      O1415   1.263       .  A
N1405      O1416   1.262       .  A
N1407      O1413   1.261       .  A
N1407      O1414   1.264       .  A
C1417      C1418   1.394       .  A
C1417      C1422   1.398       .  A
C1417      H1427   1.084       .  S
C1418      C1419   1.409       .  A
C1418      C1423   1.480       .  S
C1419      C1420   1.397       .  A
C1419      N1424   1.429       .  S
C1420      C1421   1.406       .  A
C1420      H1425   1.081       .  S
C1421      C1422   1.425       .  A
C1422      N1426   1.432       .  S
C1423      C1428   1.409       .  A
C1423      C1432   1.406       .  A
N1424      O1439   1.262       .  A
N1424      O1440   1.262       .  A
N1426      O1437   1.264       .  A
N1426      O1438   1.255       .  A
C1428      C1429   1.404       .  A
C1428      N1433   1.430       .  S
C1429      C1430   1.404       .  A
C1429      H1434   1.083       .  S
C1430      C1431   1.402       .  A
C1431      C1432   1.396       .  A
C1431      N1435   1.430       .  S
C1432      H1436   1.084       .  S
N1433      O1443   1.262       .  A
N1433      O1444   1.261       .  A
N1435      O1441   1.262       .  A
N1435      O1442   1.261       .  A
C1445      C1446   1.402       .  A
C1445      C1450   1.403       .  A
C1445      H1455   1.079       .  S
C1446      C1447   1.418       .  A
C1446      C1451   1.508       .  S
C1447      C1448   1.397       .  A
C1447      N1452   1.422       .  S
C1448      C1449   1.395       .  A
C1448      H1453   1.082       .  S
C1449      C1450   1.423       .  A
C1450      N1454   1.429       .  S
C1451      C1456   1.424       .  A
C1451      C1460   1.408       .  A
N1452      O1467   1.262       .  A
N1452      O1468   1.261       .  A
N1454      O1465   1.262       .  A
N1454      O1466   1.260       .  A
C1456      C1457   1.403       .  A
C1456      N1461   1.429       .  S
C1457      C1458   1.397       .  A
C1457      H1462   1.083       .  S
C1458      C1459   1.410       .  A
C1459      C1460   1.402       .  A
C1459      N1463   1.429       .  S
C1460      H1464   1.082       .  S
N1461      O1471   1.263       .  A
N1461      O1472   1.261       .  A
N1463      O1469   1.262       .  A
N1463      O1470   1.262       .  A
C1473      C1474   1.404       .  A
C1473      C1478   1.397       .  A
C1473      H1483   1.082       .  S
C1474      C1475   1.417       .  A
C1474      C1479   1.490       .  S
C1475      C1476   1.400       .  A
C1475      N1480   1.428       .  S
C1476      C1477   1.393       .  A
C1476      H1481   1.077       .  S
C1477      C1478   1.400       .  A
C1478      N1482   1.419       .  S
C1479      C1484   1.412       .  A
C1479      C1488   1.401       .  A
N1480      O1495   1.262       .  A
N1480      O1496   1.262       .  A
N1482      O1493   1.262       .  A
N1482      O1494   1.260       .  A
C1484      C1485   1.395       .  A
C1484      N1489   1.428       .  S
C1485      C1486   1.398       .  A
C1485      H1490   1.082       .  S
C1486      C1487   1.428       .  A
C1487      C1488   1.410       .  A
C1487      N1491   1.437       .  S
C1488      H1492   1.084       .  S
N1489      O1499   1.262       .  A
N1489      O1500   1.261       .  A
N1491      O1497   1.256       .  A
N1491      O1498   1.263       .  A
C1501      H1502   1.092       .  S
C1501      C1507   1.534       .  S
C1501      C1506   1.537       .  S
C1501      C1505   1.531       .  S
C1503      H1504   1.109       .  S
C1503      C1509   1.568       .  S
C1503      C1508   1.570       .  S
C1503      C1510   1.571       .  S
C1505      C1508   1.370       .  D
C1505      C1648   1.509       .  S
C1506      C1509   1.381       .  D
C1506      C1607   1.501       .  S
C1507      C1510   1.370       .  D
C1507      C1662   1.508       .  S
C1508      C1958   1.484       .  S
C1509      C1921   1.504       .  S
C1510      C1986   1.498       .  S
C1511      C1517   1.533       .  S
C1511      C1516   1.526       .  S
C1511      C1515   1.531       .  S
C1513      H1514   1.111       .  S
C1513      C1519   1.579       .  S
C1513      C1518   1.575       .  S
C1513      C1520   1.551       .  S
C1515      C1518   1.376       .  D
C1516      C1519   1.364       .  D
C1517      C1520   1.368       .  D
C1517      C1633   1.488       .  S
C1518      C1865   1.499       .  S
C1519      C1893   1.486       .  S
C1520      C1977   1.481       .  S
C1521      H2522   1.091       .  S
C1521      C1527   1.528       .  S
C1521      C1526   1.533       .  S
C1521      C1525   1.547       .  S
H1522      C2521   1.092       .  S
C1523      H1524   1.092       .  S
C1523      C1529   1.560       .  S
C1523      C1528   1.573       .  S
C1523      C1530   1.565       .  S
C1525      C1528   1.410       .  D
C1526      C1529   1.367       .  D
C1526      C2608   1.497   1_455  S
C1527      C1530   1.358       .  D
C1527      C3636   1.503   1_455  S
C1528      C1902   1.521       .  S
C1529      C1818   1.495       .  S
C1530      C1837   1.481       .  S
C1531      H3532   1.094       .  S
C1531      C1537   1.530       .  S
C1531      C1536   1.543       .  S
C1531      C1535   1.537       .  S
H1532      C3531   1.094       .  S
C1533      H1534   1.104       .  S
C1533      C1539   1.560       .  S
C1533      C1538   1.564       .  S
C1533      C1540   1.568       .  S
C1535      C1538   1.373       .  D
C1535      C3606   1.515   1_455  S
C1536      C1539   1.392       .  D
C1536      C1622   1.521       .  S
C1537      C1540   1.367       .  D
C1537      C3663   1.503   1_455  S
C1538      C1781   1.490       .  S
C1539      C1949   1.496       .  S
C1540      C1846   1.490       .  S
C1541      H3042   1.095       .  S
C1541      C1547   1.529       .  S
C1541      C1546   1.536       .  S
C1541      C1545   1.536       .  S
H1542      C3041   1.095       .  S
C1543      H1544   1.103       .  S
C1543      C1549   1.564       .  S
C1543      C1548   1.554       .  S
C1543      C1550   1.555       .  S
C1545      C1548   1.385       .  D
C1546      C1549   1.376       .  D
C1546      C3592   1.500   1_455  S
C1547      C1550   1.364       .  D
C1547      C3161   1.501   1_455  S
C1548      C1762   1.490       .  S
C1549      C1790   1.492       .  S
C1550      C1734   1.478       .  S
C1551      C1557   1.526       .  S
C1551      C1556   1.544       .  S
C1551      C1555   1.536       .  S
C1553      H1554   1.092       .  S
C1553      C1559   1.577       .  S
C1553      C1558   1.540       .  S
C1553      C1560   1.561       .  S
C1555      C1558   1.358       .  D
C1556      C1559   1.400       .  D
C1557      C1560   1.364       .  D
C1557      C1593   1.513       .  S
C1558      C1753   1.472       .  S
C1559      C1706   1.525       .  S
C1560      C1930   1.472       .  S
C1561      H2062   1.093       .  S
C1561      C1567   1.537       .  S
C1561      C1566   1.531       .  S
C1561      C1565   1.528       .  S
H1562      C2061   1.093       .  S
C1563      H1564   1.110       .  S
C1563      C1569   1.566       .  S
C1563      C1568   1.578       .  S
C1563      C1570   1.572       .  S
C1565      C1568   1.370       .  D
C1565      C2594   1.517   1_455  S
C1566      C1569   1.364       .  D
C1567      C1570   1.377       .  D
C1567      C3134   1.494   1_455  S
C1568      C1809   1.481       .  S
C1569      C1669   1.486       .  S
C1570      C1725   1.505       .  S
C1571      C1577   1.531       .  S
C1571      C1576   1.525       .  S
C1571      C1575   1.541       .  S
C1573      H1574   1.099       .  S
C1573      C1579   1.553       .  S
C1573      C1578   1.564       .  S
C1573      C1580   1.559       .  S
C1575      C1578   1.396       .  D
C1576      C1579   1.362       .  D
C1577      C1580   1.365       .  D
C1578      C1678   1.499       .  S
C1579      C1874   1.471       .  S
C1580      C1697   1.482       .  S
O1581     Cu1589   1.915       .  S
O1581      C1591   1.266       .  A
O1582     Cu1589   1.912       .  S
O1582      C1592   1.265       .  A
O1583     Cu1589   1.932       .  S
O1583      C1593   1.267       .  A
O1584     Cu1589   1.922       .  S
O1584      C1594   1.266       .  A
O1585     Cu1590   2.123       .  S
O1585      C1594   1.289       .  A
O1586     Cu1590   2.123       .  S
O1586      C1593   1.289       .  A
O1587     Cu1590   2.104       .  S
O1587      C1592   1.285       .  A
O1588     Cu1590   2.093       .  S
O1588      C1591   1.286       .  A
Cu1589    Cu1590   2.329       .  S
C1592      C3546   1.501       .  S
C1594      C2565   1.513   1_565  S
O1595     Cu1603   2.094       .  S
O1595      C1605   1.283       .  A
O1596     Cu1603   2.134       .  S
O1596      C1606   1.290       .  A
O1597     Cu1603   2.074       .  S
O1597      C1607   1.281       .  A
O1598     Cu1603   2.087       .  S
O1598      C1608   1.284       .  A
O1599     Cu1604   1.903       .  S
O1599      C1608   1.264       .  A
O1600     Cu1604   1.909       .  S
O1600      C1607   1.264       .  A
O1601     Cu1604   1.916       .  S
O1601      C1606   1.265       .  A
O1602     Cu1604   1.908       .  S
O1602      C1605   1.265       .  A
Cu1603    Cu1604   2.337       .  S
C1606      C3535   1.513       .  S
C1608      C2526   1.494   1_565  S
O1609     Cu1617   2.110       .  S
O1609      C1619   1.287       .  A
O1610     Cu1617   2.124       .  S
O1610      C1620   1.288       .  A
O1611     Cu1617   2.101       .  S
O1611      C1621   1.285       .  A
O1612     Cu1617   2.134       .  S
O1612      C1622   1.289       .  A
O1613     Cu1618   1.909       .  S
O1613      C1622   1.264       .  A
O1614     Cu1618   1.905       .  S
O1614      C1621   1.264       .  A
O1615     Cu1618   1.926       .  S
O1615      C1620   1.266       .  A
O1616     Cu1618   1.924       .  S
O1616      C1619   1.266       .  A
Cu1617    Cu1618   2.324       .  S
O1623     Cu1631   1.890       .  S
O1623      C1633   1.264       .  A
O1624     Cu1631   1.891       .  S
O1624      C1634   1.263       .  A
O1625     Cu1631   1.906       .  S
O1625      C1635   1.264       .  A
O1626     Cu1631   1.907       .  S
O1626      C1636   1.262       .  A
O1627     Cu1632   2.113       .  S
O1627      C1636   1.289       .  A
O1628     Cu1632   2.107       .  S
O1628      C1635   1.286       .  A
O1629     Cu1632   2.092       .  S
O1629      C1634   1.282       .  A
O1630     Cu1632   2.084       .  S
O1630      C1633   1.283       .  A
Cu1631    Cu1632   2.337       .  S
C1634      C3067   1.493   1_556  S
C1636      C3527   1.503       .  S
O1637     Cu1645   2.133       .  S
O1637      C1647   1.289       .  A
O1638     Cu1645   2.123       .  S
O1638      C1648   1.288       .  A
O1639     Cu1645   2.110       .  S
O1639      C1649   1.288       .  A
O1640     Cu1645   2.107       .  S
O1640      C1650   1.288       .  A
O1641     Cu1646   1.899       .  S
O1641      C1650   1.262       .  A
O1642     Cu1646   1.891       .  S
O1642      C1649   1.261       .  A
O1643     Cu1646   1.910       .  S
O1643      C1648   1.265       .  A
O1644     Cu1646   1.918       .  S
O1644      C1647   1.266       .  A
Cu1645    Cu1646   2.336       .  S
O1651     Cu1659   2.109       .  S
O1651      C1661   1.287       .  A
O1652     Cu1659   2.117       .  S
O1652      C1662   1.289       .  A
O1653     Cu1659   2.097       .  S
O1653      C1663   1.286       .  A
O1654     Cu1659   2.102       .  S
O1654      C1664   1.284       .  A
O1655     Cu1660   1.918       .  S
O1655      C1664   1.266       .  A
O1656     Cu1660   1.925       .  S
O1656      C1663   1.267       .  A
O1657     Cu1660   1.913       .  S
O1657      C1662   1.264       .  A
O1658     Cu1660   1.923       .  S
O1658      C1661   1.266       .  A
Cu1659    Cu1660   2.314       .  S
C1661      C3047   1.504   1_556  S
C1663      C3537   1.501       .  S
C1665      C1670   1.399       .  A
C1665      H1675   1.085   1_554  S
C1666      C1667   1.408       .  A
C1666      C1671   1.476       .  S
C1667      C1668   1.400       .  A
C1667      N1672   1.427       .  S
C1668      C1669   1.400       .  A
C1668      H1673   1.074       .  S
C1670      N1674   1.424   1_554  S
C1671      C1680   1.396       .  A
N1672      O1687   1.262       .  A
N1672      O1688   1.261       .  A
N1674      O1685   1.261       .  A
N1674      O1686   1.262       .  A
C1676      C1677   1.397       .  A
C1678      C1679   1.429       .  A
C1679      C1680   1.401       .  A
C1679      N1683   1.430       .  S
C1680      H1684   1.085       .  S
N1681      O1691   1.262   1_554  A
N1681      O1692   1.257       .  A
N1683      O1689   1.261       .  A
N1683      O1690   1.263       .  A
C1693      C1698   1.405       .  A
C1693      H1703   1.083   1_554  S
C1694      C1695   1.403       .  A
C1694      C1699   1.479       .  S
C1695      C1696   1.402       .  A
C1695      N1700   1.429       .  S
C1696      C1697   1.406       .  A
C1696      H1701   1.084       .  S
C1698      N1702   1.447   1_554  S
C1699      C1708   1.393       .  A
N1700      O1715   1.262       .  A
N1700      O1716   1.262       .  A
N1702      O1713   1.263       .  A
N1702      O1714   1.259       .  A
C1704      C1705   1.404       .  A
C1704      N1709   1.430       .  S
C1705      H1710   1.077       .  S
C1706      C1707   1.431       .  A
C1707      C1708   1.401       .  A
C1707      N1711   1.426       .  S
C1708      H1712   1.084       .  S
N1709      O1719   1.262       .  A
N1709      O1720   1.262       .  A
N1711      O1717   1.263       .  A
N1711      O1718   1.261       .  A
C1721      C1722   1.399       .  A
C1721      C1726   1.404       .  A
C1722      C1723   1.411       .  A
C1722      C1727   1.493       .  S
C1723      C1724   1.404       .  A
C1723      N3728   1.428       .  S
C1724      C1725   1.405       .  A
C1724      H3729   1.083       .  S
C1725      C1726   1.425       .  A
C1727      C1732   1.416       .  A
C1727      C3736   1.409       .  A
N1728      C3723   1.428       .  S
N1728      O1743   1.262       .  A
N1728      O1744   1.262       .  A
H1729      C3724   1.083       .  S
N1730      O1741   1.261       .  A
N1730      O1742   1.258       .  A
C1732      C1733   1.399       .  A
C1732      N1737   1.428       .  S
C1733      C1734   1.396       .  A
C1733      H1738   1.085       .  S
C1734      C3735   1.407       .  A
C1735      C3734   1.407       .  A
C1735      C1736   1.408       .  A
C1735      N1739   1.430       .  S
C1736      C3727   1.410       .  A
C1736      H1740   1.083       .  S
N1737      O1747   1.262       .  A
N1737      O1748   1.262       .  A
N1739      O1745   1.261       .  A
N1739      O1746   1.261       .  A
C1749      C1754   1.396       .  A
C1749      H1759   1.082       .  S
C1750      C1751   1.424       .  A
C1750      C1755   1.486       .  S
C1751      C1752   1.405       .  A
C1751      N1756   1.444       .  S
C1752      C1753   1.396       .  A
C1752      H1757   1.084       .  S
C1754      N1758   1.428       .  S
C1755      C1764   1.399       .  A
N1756      O1771   1.263       .  A
N1756      O1772   1.263       .  A
N1758      O1769   1.262       .  A
N1758      O1770   1.262       .  A
C1760      C1761   1.395       .  A
C1760      N1765   1.427       .  S
C1761      H1766   1.083       .  S
C1762      C1763   1.422       .  A
C1763      C1764   1.395       .  A
C1763      N1767   1.430       .  S
C1764      H1768   1.084       .  S
N1765      O1775   1.261       .  A
N1765      O1776   1.262       .  A
N1767      O1773   1.263       .  A
N1767      O1774   1.261       .  A
C1777      C1778   1.399       .  A
C1777      C1782   1.405       .  A
C1777      H1787   1.083   1_455  S
C1778      C1779   1.407       .  A
C1778      C1783   1.487       .  S
C1779      C1780   1.408       .  A
C1779      N1784   1.431       .  S
C1780      C1781   1.410       .  A
C1780      H1785   1.084       .  S
C1781      C1782   1.417       .  A
C1782      N1786   1.440   1_455  S
C1783      C1788   1.408       .  A
C1783      C1792   1.404       .  A
N1784      O1799   1.261       .  A
N1784      O1800   1.263       .  A
N1786      O1797   1.263       .  A
N1786      O1798   1.260       .  A
C1788      C1789   1.395       .  A
C1788      N1793   1.428       .  S
C1789      C1790   1.401       .  A
C1789      H1794   1.082       .  S
C1790      C1791   1.421       .  A
C1791      C1792   1.407       .  A
C1791      N3795   1.432       .  S
C1792      H3796   1.084       .  S
N1793      O1803   1.261       .  A
N1793      O1804   1.262       .  A
N1795      C3791   1.432       .  S
N1795      O1801   1.262       .  A
N1795      O1802   1.261       .  A
H1796      C3792   1.084       .  S
C1805      C3806   1.410       .  A
C1805      C1810   1.408       .  A
C1805      H1815   1.083       .  S
C1806      C3805   1.411       .  A
C1806      C1807   1.415       .  A
C1806      C1811   1.495       .  S
C1807      C1808   1.395       .  A
C1807      N1812   1.429       .  S
C1808      C1809   1.393       .  A
C1808      H1813   1.075       .  S
C1809      C3810   1.409   1_455  A
C1810      C3809   1.409       .  A
C1810      N1814   1.431       .  S
C1811      C1816   1.413       .  A
N1812      O1827   1.262       .  A
N1812      O1828   1.262       .  A
N1814      O1825   1.261       .  A
N1814      O1826   1.261       .  A
C1816      C1817   1.400       .  A
C1816      N1821   1.428       .  S
C1817      C1818   1.401       .  A
C1817      H1822   1.082       .  S
C1819      C1820   1.405       .  A
C1819      N1823   1.432       .  S
C1820      H1824   1.084       .  S
N1821      O3831   1.262   1_455  A
N1821      O1832   1.262       .  A
N1823      O1829   1.262       .  A
N1823      O1830   1.262       .  A
O1831      N3821   1.262       .  A
C1833      C3834   1.410       .  A
C1833      C1838   1.408       .  A
C1833      H1843   1.083       .  S
C1834      C3833   1.410   1_455  A
C1834      C1835   1.418       .  A
C1834      C1839   1.499       .  S
C1835      C1836   1.397       .  A
C1835      N1840   1.429       .  S
C1836      C1837   1.391       .  A
C1836      H1841   1.082       .  S
C1837      C3838   1.409   1_455  A
C1838      C3837   1.409       .  A
C1838      N1842   1.428       .  S
C1839      C1844   1.415       .  A
C1839      C1848   1.406       .  A
N1840      O1855   1.262       .  A
N1840      O1856   1.262       .  A
N1842      O1853   1.261       .  A
N1842      O1854   1.259       .  A
C1844      C1845   1.401       .  A
C1844      N3849   1.428       .  S
C1845      C1846   1.399       .  A
C1845      H3850   1.081       .  S
C1846      C1847   1.418       .  A
C1847      C1848   1.402       .  A
C1847      N1851   1.433       .  S
C1848      H1852   1.083       .  S
N1849      C3844   1.428       .  S
N1849      O1859   1.262       .  A
N1849      O1860   1.261       .  A
H1850      C3845   1.081       .  S
N1851      O1857   1.260       .  A
N1851      O1858   1.260       .  A
C1861      C1862   1.405       .  A
C1861      C1866   1.407       .  A
C1861      H1871   1.082       .  S
C1862      C1867   1.496       .  S
C1863      C1864   1.390       .  A
C1863      N1868   1.428       .  S
C1864      H1869   1.159       .  S
C1865      C1866   1.418       .  A
C1866      N1870   1.427       .  S
C1867      C1872   1.419       .  A
N1868      O1883   1.262   1_545  A
N1868      O1884   1.262       .  A
N1870      O1881   1.260       .  A
N1870      O1882   1.261       .  A
C1872      C1873   1.398       .  A
C1872      N1877   1.428       .  S
C1873      C1874   1.394       .  A
C1873      H1878   1.084       .  S
C1875      C1876   1.403       .  A
C1875      N1879   1.430   1_545  S
C1876      H1880   1.080   1_545  S
N1877      O1887   1.262       .  A
N1877      O1888   1.262       .  A
N1879      O1885   1.262       .  A
N1879      O1886   1.261       .  A
C1889      C1890   1.398       .  A
C1889      C1894   1.408       .  A
C1889      H1899   1.084       .  S
C1890      C1891   1.401       .  A
C1890      C1895   1.473       .  S
C1891      C1892   1.387       .  A
C1891      N1896   1.428       .  S
C1892      C1893   1.394       .  A
C1892      H1897   1.071       .  S
C1893      C1894   1.432       .  A
C1894      N1898   1.445       .  S
C1895      C1904   1.390       .  A
N1896      O1911   1.262       .  A
N1896      O1912   1.262       .  A
N1898      O1909   1.264       .  A
N1898      O1910   1.259       .  A
C1900      C1901   1.400       .  A
C1900      N1905   1.435   1_545  S
C1901      H1906   1.071   1_545  S
C1902      C1903   1.439       .  A
C1903      C1904   1.402       .  A
C1903      N1907   1.429       .  S
C1904      H1908   1.085       .  S
N1905      O1915   1.263       .  A
N1905      O1916   1.262       .  A
N1907      O1913   1.261       .  A
N1907      O1914   1.263       .  A
C1917      C1918   1.393       .  A
C1917      C1922   1.397       .  A
C1917      H1927   1.084       .  S
C1918      C1919   1.410       .  A
C1918      C1923   1.481       .  S
C1919      C1920   1.398       .  A
C1919      N1924   1.429       .  S
C1920      C1921   1.407       .  A
C1920      H1925   1.081       .  S
C1921      C1922   1.427       .  A
C1922      N1926   1.433       .  S
C1923      C1928   1.409       .  A
C1923      C1932   1.407       .  A
N1924      O1939   1.262       .  A
N1924      O1940   1.262       .  A
N1926      O1937   1.264       .  A
N1926      O1938   1.254       .  A
C1928      C1929   1.405       .  A
C1928      N1933   1.430       .  S
C1929      C1930   1.404       .  A
C1929      H1934   1.083       .  S
C1930      C1931   1.402       .  A
C1931      C1932   1.396       .  A
C1931      N1935   1.430       .  S
C1932      H1936   1.084       .  S
N1933      O1943   1.262       .  A
N1933      O1944   1.261       .  A
N1935      O1941   1.262       .  A
N1935      O1942   1.261       .  A
C1945      C1946   1.401       .  A
C1945      C1950   1.403       .  A
C1945      H1955   1.080       .  S
C1946      C1947   1.417       .  A
C1946      C1951   1.506       .  S
C1947      C1948   1.397       .  A
C1947      N1952   1.421       .  S
C1948      C1949   1.396       .  A
C1948      H1953   1.083       .  S
C1949      C1950   1.422       .  A
C1950      N1954   1.429       .  S
C1951      C1956   1.423       .  A
C1951      C1960   1.408       .  A
N1952      O1967   1.263       .  A
N1952      O1968   1.260       .  A
N1954      O1965   1.262       .  A
N1954      O1966   1.260       .  A
C1956      C1957   1.402       .  A
C1956      N1961   1.428       .  S
C1957      C1958   1.395       .  A
C1957      H1962   1.084       .  S
C1958      C1959   1.412       .  A
C1959      C1960   1.403       .  A
C1959      N1963   1.429       .  S
C1960      H1964   1.082       .  S
N1961      O1971   1.262       .  A
N1961      O1972   1.260       .  A
N1963      O1969   1.262       .  A
N1963      O1970   1.262       .  A
C1973      C1974   1.404       .  A
C1973      C1978   1.398       .  A
C1973      H1983   1.082       .  S
C1974      C1975   1.419       .  A
C1974      C1979   1.494       .  S
C1975      C1976   1.402       .  A
C1975      N1980   1.428       .  S
C1976      C1977   1.396       .  A
C1976      H1981   1.079       .  S
C1977      C1978   1.400       .  A
C1978      N1982   1.418       .  S
C1979      C1984   1.413       .  A
C1979      C1988   1.401       .  A
N1980      O1995   1.262       .  A
N1980      O1996   1.262       .  A
N1982      O1993   1.262       .  A
N1982      O1994   1.260       .  A
C1984      C1985   1.397       .  A
C1984      N1989   1.428       .  S
C1985      C1986   1.398       .  A
C1985      H1990   1.083       .  S
C1986      C1987   1.428       .  A
C1987      C1988   1.410       .  A
C1987      N1991   1.437       .  S
C1988      H1992   1.083       .  S
N1989      O1999   1.262       .  A
N1989      O2000   1.261       .  A
N1991      O1997   1.256       .  A
N1991      O1998   1.263       .  A
C2001      H2002   1.092       .  S
C2001      C2007   1.533       .  S
C2001      C2006   1.537       .  S
C2001      C2005   1.531       .  S
C2003      H2004   1.110       .  S
C2003      C2009   1.566       .  S
C2003      C2008   1.569       .  S
C2003      C2010   1.570       .  S
C2005      C2008   1.370       .  D
C2005      C2148   1.512       .  S
C2006      C2009   1.381       .  D
C2006      C2107   1.499       .  S
C2007      C2010   1.369       .  D
C2007      C2162   1.507       .  S
C2008      C2458   1.481       .  S
C2009      C2421   1.504       .  S
C2010      C2486   1.496       .  S
C2011      H3012   1.093   1_545  S
C2011      C2017   1.531       .  S
C2011      C2016   1.532       .  S
C2011      C2015   1.528       .  S
H2012      C3011   1.092       .  S
C2013      H2014   1.111       .  S
C2013      C2019   1.576       .  S
C2013      C2018   1.572       .  S
C2013      C2020   1.549       .  S
C2015      C2018   1.370       .  D
C2015      C3105   1.500   1_545  S
C2016      C2019   1.372       .  D
C2016      C3150   1.506   1_545  S
C2017      C2020   1.365       .  D
C2017      C2133   1.487       .  S
C2018      C2365   1.490       .  S
C2019      C2393   1.492       .  S
C2020      C2477   1.476       .  S
C2021      C2027   1.526       .  S
C2021      C2026   1.533       .  S
C2021      C2025   1.548       .  S
C2023      H2024   1.092       .  S
C2023      C2029   1.562       .  S
C2023      C2028   1.572       .  S
C2023      C2030   1.565       .  S
C2025      C2028   1.411       .  D
C2025      C3120   1.543   1_545  S
C2026      C2029   1.368       .  D
C2027      C2030   1.357       .  D
C2028      C2402   1.524       .  S
C2029      C2318   1.494       .  S
C2030      C2337   1.479       .  S
C2031      C2037   1.530       .  S
C2031      C2036   1.545       .  S
C2031      C2035   1.536       .  S
C2033      H2034   1.103       .  S
C2033      C2039   1.558       .  S
C2033      C2038   1.563       .  S
C2033      C2040   1.566       .  S
C2035      C2038   1.372       .  D
C2036      C2039   1.392       .  D
C2036      C2122   1.521       .  S
C2037      C2040   1.366       .  D
C2038      C2281   1.488       .  S
C2039      C2449   1.495       .  S
C2040      C2346   1.486       .  S
C2041      C2047   1.530       .  S
C2041      C2046   1.536       .  S
C2041      C2045   1.537       .  S
C2043      H2044   1.104       .  S
C2043      C2049   1.563       .  S
C2043      C2048   1.552       .  S
C2043      C2050   1.555       .  S
C2045      C2048   1.383       .  D
C2045      C2619   1.515   1_554  S
C2046      C2049   1.376       .  D
C2047      C2050   1.364       .  D
C2048      C2262   1.486       .  S
C2049      C2290   1.491       .  S
C2050      C2234   1.476       .  S
C2051      H2552   1.093   1_554  S
C2051      C2057   1.526       .  S
C2051      C2056   1.545       .  S
C2051      C2055   1.536       .  S
H2052      C2551   1.093       .  S
C2053      H2054   1.092       .  S
C2053      C2059   1.578       .  S
C2053      C2058   1.542       .  S
C2053      C2060   1.562       .  S
C2055      C2058   1.358       .  D
C2055      C2649   1.494   1_554  S
C2056      C2059   1.400       .  D
C2056      C2664   1.517   1_554  S
C2057      C2060   1.364       .  D
C2057      C2093   1.514       .  S
C2058      C2253   1.471       .  S
C2059      C2206   1.527       .  S
C2060      C2430   1.472       .  S
C2061      C2067   1.538       .  S
C2061      C2066   1.532       .  S
C2061      C2065   1.528       .  S
C2063      H2064   1.111       .  S
C2063      C2069   1.561       .  S
C2063      C2068   1.573       .  S
C2063      C2070   1.569       .  S
C2065      C2068   1.371       .  D
C2066      C2069   1.366       .  D
C2066      C3621   1.498   1_544  S
C2067      C2070   1.375       .  D
C2068      C2309   1.475       .  S
C2069      C2169   1.483       .  S
C2070      C2225   1.501       .  S
C2071      H3572   1.093   1_544  S
C2071      C2077   1.533       .  S
C2071      C2076   1.526       .  S
C2071      C2075   1.541       .  S
H2072      C3571   1.094       .  S
C2073      H2074   1.099       .  S
C2073      C2079   1.555       .  S
C2073      C2078   1.565       .  S
C2073      C2080   1.559       .  S
C2075      C2078   1.398       .  D
C2075      C3647   1.530   1_544  S
C2076      C2079   1.364       .  D
C2076      C3091   1.496   1_545  S
C2077      C2080   1.364       .  D
C2077      C2635   1.498   1_554  S
C2078      C2178   1.500       .  S
C2079      C2374   1.474       .  S
C2080      C2197   1.484       .  S
O2081     Cu2089   1.913       .  S
O2081      C2091   1.266       .  A
O2082     Cu2089   1.909       .  S
O2082      C2092   1.265       .  A
O2083     Cu2089   1.932       .  S
O2083      C2093   1.267       .  A
O2084     Cu2089   1.925       .  S
O2084      C2094   1.266       .  A
O2085     Cu2090   2.129       .  S
O2085      C2094   1.290       .  A
O2086     Cu2090   2.125       .  S
O2086      C2093   1.289       .  A
O2087     Cu2090   2.100       .  S
O2087      C2092   1.284       .  A
O2088     Cu2090   2.090       .  S
O2088      C2091   1.285       .  A
Cu2089    Cu2090   2.331       .  S
C2091      C3076   1.495       .  S
O2095     Cu2103   2.093       .  S
O2095      C2105   1.283       .  A
O2096     Cu2103   2.134       .  S
O2096      C2106   1.290       .  A
O2097     Cu2103   2.074       .  S
O2097      C2107   1.281       .  A
O2098     Cu2103   2.085       .  S
O2098      C2108   1.283       .  A
O2099     Cu2104   1.902       .  S
O2099      C2108   1.264       .  A
O2100     Cu2104   1.904       .  S
O2100      C2107   1.264       .  A
O2101     Cu2104   1.910       .  S
O2101      C2106   1.264       .  A
O2102     Cu2104   1.904       .  S
O2102      C2105   1.264       .  A
Cu2103    Cu2104   2.339       .  S
C2105      C3015   1.497       .  S
O2109     Cu2117   2.115       .  S
O2109      C2119   1.288       .  A
O2110     Cu2117   2.131       .  S
O2110      C2120   1.289       .  A
O2111     Cu2117   2.102       .  S
O2111      C2121   1.286       .  A
O2112     Cu2117   2.135       .  S
O2112      C2122   1.289       .  A
O2113     Cu2118   1.904       .  S
O2113      C2122   1.263       .  A
O2114     Cu2118   1.904       .  S
O2114      C2121   1.263       .  A
O2115     Cu2118   1.925       .  S
O2115      C2120   1.266       .  A
O2116     Cu2118   1.924       .  S
O2116      C2119   1.266       .  A
Cu2117    Cu2118   2.326       .  S
C2119      C2545   1.517       .  S
C2120      C3025   1.543       .  S
C2121      C3566   1.497       .  S
O2123     Cu2131   1.895       .  S
O2123      C2133   1.264       .  A
O2124     Cu2131   1.895       .  S
O2124      C2134   1.263       .  A
O2125     Cu2131   1.916       .  S
O2125      C2135   1.265       .  A
O2126     Cu2131   1.913       .  S
O2126      C2136   1.263       .  A
O2127     Cu2132   2.114       .  S
O2127      C2136   1.289       .  A
O2128     Cu2132   2.112       .  S
O2128      C2135   1.287       .  A
O2129     Cu2132   2.101       .  S
O2129      C2134   1.283       .  A
O2130     Cu2132   2.081       .  S
O2130      C2133   1.283       .  A
Cu2131    Cu2132   2.328       .  S
C2135      C2577   1.504       .  S
O2137     Cu2145   2.136       .  S
O2137      C2147   1.289       .  A
O2138     Cu2145   2.128       .  S
O2138      C2148   1.288       .  A
O2139     Cu2145   2.109       .  S
O2139      C2149   1.288       .  A
O2140     Cu2145   2.112       .  S
O2140      C2150   1.288       .  A
O2141     Cu2146   1.895       .  S
O2141      C2150   1.261       .  A
O2142     Cu2146   1.891       .  S
O2142      C2149   1.260       .  A
O2143     Cu2146   1.911       .  S
O2143      C2148   1.265       .  A
O2144     Cu2146   1.917       .  S
O2144      C2147   1.266       .  A
Cu2145    Cu2146   2.334       .  S
C2147      C3575   1.527       .  S
C2149      C2555   1.493       .  S
C2150      C3016   1.508       .  S
O2151     Cu2159   2.109       .  S
O2151      C2161   1.287       .  A
O2152     Cu2159   2.114       .  S
O2152      C2162   1.288       .  A
O2153     Cu2159   2.102       .  S
O2153      C2163   1.287       .  A
O2154     Cu2159   2.104       .  S
O2154      C2164   1.284       .  A
O2155     Cu2160   1.916       .  S
O2155      C2164   1.266       .  A
O2156     Cu2160   1.924       .  S
O2156      C2163   1.266       .  A
O2157     Cu2160   1.911       .  S
O2157      C2162   1.264       .  A
O2158     Cu2160   1.921       .  S
O2158      C2161   1.265       .  A
Cu2159    Cu2160   2.318       .  S
C2164      C2556   1.518       .  S
C2165      C2666   1.396       .  A
C2165      C2170   1.393       .  A
C2165      H2175   1.085       .  S
C2166      C2665   1.397       .  A
C2166      C2167   1.412       .  A
C2166      C2171   1.483       .  S
C2167      C2168   1.404       .  A
C2167      N2172   1.427   1_545  S
C2168      C2169   1.401       .  A
C2168      H2173   1.080   1_545  S
C2169      C2670   1.407       .  A
C2170      C2669   1.407       .  A
C2170      N2174   1.421       .  S
C2171      C3176   1.404   1_545  A
C2171      C2180   1.396       .  A
N2172      O2187   1.262   1_565  A
N2172      O2188   1.260       .  A
N2174      O2185   1.262       .  A
N2174      O2186   1.262       .  A
C2176      C3171   1.402       .  A
C2176      C2177   1.397       .  A
C2176      N2681   1.422       .  S
C2177      C3178   1.401       .  A
C2177      H2682   1.081       .  S
C2178      C3177   1.399   1_545  A
C2178      C2179   1.429       .  A
C2179      C2180   1.400       .  A
C2179      N2183   1.430       .  S
C2180      H2184   1.085       .  S
N2181      C2676   1.419       .  S
N2181      O2191   1.262       .  A
N2181      O2192   1.258       .  A
H2182      C2677   1.083       .  S
N2183      O2189   1.261       .  A
N2183      O2190   1.262       .  A
C2193      C2694   1.396       .  A
C2193      C2198   1.408       .  A
C2193      H2203   1.083       .  S
C2194      C2693   1.395       .  A
C2194      C2195   1.404       .  A
C2194      C2199   1.481       .  S
C2195      C2196   1.404       .  A
C2195      N2200   1.429       .  S
C2196      C2197   1.407       .  A
C2196      H2201   1.084       .  S
C2197      C2698   1.426       .  A
C2198      C2697   1.428       .  A
C2198      N2202   1.447       .  S
C2199      C2704   1.402   1_554  A
C2199      C2208   1.394       .  A
N2200      O2215   1.262       .  A
N2200      O2216   1.262       .  A
N2202      O2213   1.263       .  A
N2202      O2214   1.259       .  A
C2204      C2699   1.403       .  A
C2204      C2205   1.406       .  A
C2204      N2209   1.430       .  S
C2205      C2706   1.413       .  A
C2205      H2210   1.078       .  S
C2206      C2705   1.413   1_554  A
C2206      C2207   1.430       .  A
C2207      C2208   1.401       .  A
C2207      N2211   1.425       .  S
C2208      H2212   1.084       .  S
N2209      O2219   1.261       .  A
N2209      O2220   1.262       .  A
N2211      O2217   1.263       .  A
N2211      O2218   1.261       .  A
C2221      C2222   1.401       .  A
C2221      C2226   1.404   1_554  A
C2221      H2731   1.083   1_554  S
C2222      C2223   1.413       .  A
C2222      C2227   1.495       .  S
C2223      C2224   1.402       .  A
C2224      C2225   1.405       .  A
C2225      C2226   1.424   1_554  A
C2226      N2730   1.432       .  S
C2227      C2232   1.417       .  A
N2228      O2243   1.262       .  A
N2228      O2244   1.262       .  A
N2230      C2726   1.432       .  S
N2230      O2241   1.260       .  A
N2230      O2242   1.258       .  A
H2231      C2721   1.084       .  S
C2232      C2233   1.398       .  A
C2232      N2237   1.429       .  S
C2233      C2234   1.396       .  A
C2233      H2238   1.085       .  S
C2235      C2236   1.406       .  A
C2235      N2239   1.429   1_455  S
C2236      H2240   1.083   1_455  S
N2237      O2247   1.262   1_554  A
N2237      O2248   1.262       .  A
N2239      O2245   1.261       .  A
N2239      O2246   1.262       .  A
C2249      C2750   1.403       .  A
C2249      C2254   1.395       .  A
C2249      H2259   1.082       .  S
C2250      C2749   1.403       .  A
C2250      C2251   1.427       .  A
C2250      C2255   1.488       .  S
C2251      C2252   1.405       .  A
C2251      N2256   1.444       .  S
C2252      C2253   1.396       .  A
C2252      H2257   1.084       .  S
C2253      C2754   1.405       .  A
C2254      C2753   1.405       .  A
C2254      N2258   1.428       .  S
C2255      C2760   1.414   1_554  A
C2255      C2264   1.400       .  A
N2256      O2271   1.263       .  A
N2256      O2272   1.262       .  A
N2258      O2269   1.262       .  A
N2258      O2270   1.262       .  A
C2260      C2755   1.415       .  A
C2260      C2261   1.395       .  A
C2260      N2265   1.428       .  S
C2261      C2762   1.400       .  A
C2261      H2266   1.082       .  S
C2262      C2761   1.399   1_554  A
C2262      C2263   1.420       .  A
C2263      C2264   1.395       .  A
C2263      N2267   1.430       .  S
C2264      H2268   1.084       .  S
N2265      O2275   1.261       .  A
N2265      O2276   1.262       .  A
N2267      O2273   1.262       .  A
N2267      O2274   1.261       .  A
C2277      C2278   1.399       .  A
C2277      C2282   1.405       .  A
C2277      H2287   1.084       .  S
C2278      C2279   1.407       .  A
C2278      C2283   1.485       .  S
C2279      C2280   1.407       .  A
C2279      N2284   1.431       .  S
C2280      C2281   1.409       .  A
C2280      H2285   1.084       .  S
C2281      C2282   1.417       .  A
C2282      N2286   1.440       .  S
C2283      C2288   1.406       .  A
C2283      C2292   1.403       .  A
N2284      O2299   1.262       .  A
N2284      O2300   1.263       .  A
N2286      O2297   1.263       .  A
N2286      O2298   1.260       .  A
C2288      C2289   1.394       .  A
C2288      N2293   1.428       .  S
C2289      C2290   1.402       .  A
C2289      H2294   1.082       .  S
C2290      C2291   1.421       .  A
C2291      C2292   1.406       .  A
N2293      O2303   1.261       .  A
N2293      O2304   1.262       .  A
N2295      O2301   1.262       .  A
N2295      O2302   1.261       .  A
C2305      C2310   1.408       .  A
C2305      H2315   1.083       .  S
C2306      C2307   1.414       .  A
C2306      C2311   1.491       .  S
C2307      C2308   1.393       .  A
C2307      N2312   1.428       .  S
C2308      C2309   1.393       .  A
C2308      H2313   1.079       .  S
C2310      N2314   1.431       .  S
C2311      C2316   1.411       .  A
C2311      C3320   1.404       .  A
N2312      O2327   1.262   1_545  A
N2312      O2328   1.262       .  A
N2314      O2325   1.261       .  A
N2314      O2326   1.261       .  A
C2316      C2317   1.399       .  A
C2316      N2321   1.428       .  S
C2317      C2318   1.401       .  A
C2317      H2322   1.081       .  S
C2318      C3319   1.418       .  A
C2319      C3318   1.419       .  A
C2319      C2320   1.406       .  A
C2319      N2323   1.432       .  S
C2320      C3311   1.405       .  A
C2320      H2324   1.084       .  S
N2321      O2332   1.262       .  A
N2323      O2329   1.262       .  A
N2323      O2330   1.262       .  A
C2333      C2338   1.408       .  A
C2333      H2343   1.083       .  S
C2334      C2335   1.415       .  A
C2334      C2339   1.493       .  S
C2335      C2336   1.397       .  A
C2335      N2340   1.430       .  S
C2336      C2337   1.391       .  A
C2336      H2341   1.081       .  S
C2338      N2342   1.427       .  S
C2339      C2344   1.412       .  A
C2339      C2348   1.406       .  A
N2340      O2355   1.262       .  A
N2340      O2356   1.262       .  A
N2342      O2353   1.261       .  A
N2342      O2354   1.259       .  A
C2344      C2345   1.398       .  A
C2345      C2346   1.398       .  A
C2346      C2347   1.418       .  A
C2347      C2348   1.403       .  A
C2347      N2351   1.434       .  S
C2348      H2352   1.084       .  S
N2349      O2359   1.262   1_455  A
N2349      O2360   1.261       .  A
N2351      O2357   1.260       .  A
N2351      O2358   1.260       .  A
C2361      C2362   1.406       .  A
C2361      C2366   1.404       .  A
C2361      H2371   1.082       .  S
C2362      C3363   1.416       .  A
C2362      C2367   1.499       .  S
C2363      C3362   1.416       .  A
C2363      C2364   1.397       .  A
C2363      N2368   1.429       .  S
C2364      C3365   1.395       .  A
C2364      H2369   1.076       .  S
C2365      C3364   1.396       .  A
C2365      C2366   1.415       .  A
C2366      N2370   1.428       .  S
C2367      C2372   1.420       .  A
C2367      C3376   1.410       .  A
N2368      O2383   1.262       .  A
N2368      O2384   1.262       .  A
N2370      O2381   1.260       .  A
N2370      O2382   1.262       .  A
C2372      C2373   1.398       .  A
C2372      N2377   1.428       .  S
C2373      C2374   1.394       .  A
C2373      H2378   1.084       .  S
C2374      C3375   1.405       .  A
C2375      C3374   1.403       .  A
C2375      C2376   1.401       .  A
C2375      N2379   1.430       .  S
C2376      C3367   1.410       .  A
C2376      H2380   1.080       .  S
N2377      O2387   1.262       .  A
N2377      O2388   1.262       .  A
N2379      O2385   1.262       .  A
N2379      O2386   1.261       .  A
C2389      C2390   1.400       .  A
C2389      C2394   1.409       .  A
C2389      H2399   1.084       .  S
C2390      C2391   1.404       .  A
C2390      C2395   1.481       .  S
C2391      C2392   1.390       .  A
C2391      N2396   1.428       .  S
C2392      C2393   1.399       .  A
C2392      H2397   1.075       .  S
C2393      C2394   1.432       .  A
C2394      N2398   1.443       .  S
C2395      C3400   1.405       .  A
C2395      C2404   1.392       .  A
N2396      O2411   1.262       .  A
N2396      O2412   1.262       .  A
N2398      O2409   1.264       .  A
N2398      O2410   1.260       .  A
C2400      C3395   1.404       .  A
C2400      C2401   1.399       .  A
C2400      N2405   1.435       .  S
C2401      C3402   1.403       .  A
C2401      H2406   1.072       .  S
C2402      C3401   1.403       .  A
C2402      C2403   1.440       .  A
C2403      C2404   1.405       .  A
C2403      N2407   1.429       .  S
C2404      H2408   1.085       .  S
N2405      O2415   1.263       .  A
N2405      O2416   1.262       .  A
N2407      O2413   1.261       .  A
N2407      O2414   1.263       .  A
C2417      C2418   1.393       .  A
C2417      C2422   1.397       .  A
C2417      H2427   1.084       .  S
C2418      C2419   1.410       .  A
C2418      C2423   1.481       .  S
C2419      C2420   1.398       .  A
C2419      N2424   1.429       .  S
C2420      C2421   1.406       .  A
C2420      H2425   1.081       .  S
C2421      C2422   1.426       .  A
C2422      N2426   1.431       .  S
C2423      C2428   1.409       .  A
C2423      C2432   1.407       .  A
N2424      O2439   1.262       .  A
N2424      O2440   1.262       .  A
N2426      O2437   1.264       .  A
N2426      O2438   1.254       .  A
C2428      C2429   1.405       .  A
C2428      N2433   1.430       .  S
C2429      C2430   1.404       .  A
C2429      H2434   1.083       .  S
C2430      C2431   1.402       .  A
C2431      C2432   1.396       .  A
C2431      N2435   1.430       .  S
C2432      H2436   1.084       .  S
N2433      O2443   1.262       .  A
N2433      O2444   1.261       .  A
N2435      O2441   1.262       .  A
N2435      O2442   1.261       .  A
C2445      C2446   1.400       .  A
C2445      C2450   1.402       .  A
C2445      H2455   1.080       .  S
C2446      C2447   1.417       .  A
C2446      C2451   1.504       .  S
C2447      C2448   1.397       .  A
C2447      N2452   1.422       .  S
C2448      C2449   1.396       .  A
C2448      H2453   1.082       .  S
C2449      C2450   1.424       .  A
C2450      N2454   1.430       .  S
C2451      C2456   1.423       .  A
C2451      C2460   1.407       .  A
N2452      O2467   1.262       .  A
N2452      O2468   1.261       .  A
N2454      O2465   1.262       .  A
N2454      O2466   1.260       .  A
C2456      C2457   1.401       .  A
C2456      N2461   1.429       .  S
C2457      C2458   1.395       .  A
C2457      H2462   1.084       .  S
C2458      C2459   1.411       .  A
C2459      C2460   1.402       .  A
C2459      N2463   1.430       .  S
C2460      H2464   1.082       .  S
N2461      O2471   1.263       .  A
N2461      O2472   1.261       .  A
N2463      O2469   1.262       .  A
N2463      O2470   1.262       .  A
C2473      C2474   1.404       .  A
C2473      C2478   1.398       .  A
C2473      H2483   1.082       .  S
C2474      C2475   1.416       .  A
C2474      C2479   1.489       .  S
C2475      C2476   1.399       .  A
C2475      N2480   1.427       .  S
C2476      C2477   1.394       .  A
C2476      H2481   1.078       .  S
C2477      C2478   1.401       .  A
C2478      N2482   1.420       .  S
C2479      C2484   1.411       .  A
C2479      C2488   1.400       .  A
N2480      O2495   1.262       .  A
N2480      O2496   1.262       .  A
N2482      O2493   1.262       .  A
N2482      O2494   1.261       .  A
C2484      C2485   1.396       .  A
C2484      N2489   1.427       .  S
C2485      C2486   1.399       .  A
C2485      H2490   1.083       .  S
C2486      C2487   1.428       .  A
C2487      C2488   1.409       .  A
C2487      N2491   1.437       .  S
C2488      H2492   1.084       .  S
N2489      O2499   1.262       .  A
N2489      O2500   1.261       .  A
N2491      O2497   1.256       .  A
N2491      O2498   1.263       .  A
C2501      H2502   1.092       .  S
C2501      C2507   1.533       .  S
C2501      C2506   1.538       .  S
C2501      C2505   1.532       .  S
C2503      H2504   1.109       .  S
C2503      C2509   1.568       .  S
C2503      C2508   1.567       .  S
C2503      C2510   1.569       .  S
C2505      C2508   1.370       .  D
C2505      C2648   1.509       .  S
C2506      C2509   1.382       .  D
C2506      C2607   1.502       .  S
C2507      C2510   1.369       .  D
C2507      C2662   1.507       .  S
C2508      C2958   1.483       .  S
C2509      C2921   1.505       .  S
C2510      C2986   1.495       .  S
C2511      H3512   1.092       .  S
C2511      C2517   1.532       .  S
C2511      C2516   1.528       .  S
C2511      C2515   1.529       .  S
H2512      C3511   1.092       .  S
C2513      H2514   1.111       .  S
C2513      C2519   1.579       .  S
C2513      C2518   1.574       .  S
C2513      C2520   1.552       .  S
C2515      C2518   1.370       .  D
C2515      C3605   1.500   1_545  S
C2516      C2519   1.369       .  D
C2516      C3650   1.508   1_545  S
C2517      C2520   1.367       .  D
C2517      C2633   1.488       .  S
C2518      C2865   1.494       .  S
C2519      C2893   1.488       .  S
C2520      C2977   1.479       .  S
C2521      C2527   1.527       .  S
C2521      C2526   1.534       .  S
C2521      C2525   1.547       .  S
C2523      H2524   1.091       .  S
C2523      C2529   1.559       .  S
C2523      C2528   1.572       .  S
C2523      C2530   1.564       .  S
C2525      C2528   1.411       .  D
C2525      C3620   1.543   1_545  S
C2526      C2529   1.367       .  D
C2527      C2530   1.358       .  D
C2528      C2902   1.521       .  S
C2529      C2818   1.495       .  S
C2530      C2837   1.479       .  S
C2531      C2537   1.530       .  S
C2531      C2536   1.544       .  S
C2531      C2535   1.535       .  S
C2533      H2534   1.105       .  S
C2533      C2539   1.558       .  S
C2533      C2538   1.565       .  S
C2533      C2540   1.567       .  S
C2535      C2538   1.374       .  D
C2536      C2539   1.390       .  D
C2536      C2622   1.519       .  S
C2537      C2540   1.367       .  D
C2538      C2781   1.490       .  S
C2539      C2949   1.494       .  S
C2540      C2846   1.488       .  S
C2541      C2547   1.532       .  S
C2541      C2546   1.535       .  S
C2541      C2545   1.538       .  S
C2543      H2544   1.103       .  S
C2543      C2549   1.565       .  S
C2543      C2548   1.553       .  S
C2543      C2550   1.553       .  S
C2545      C2548   1.384       .  D
C2546      C2549   1.377       .  D
C2547      C2550   1.364       .  D
C2548      C2762   1.489       .  S
C2549      C2790   1.492       .  S
C2550      C2734   1.477       .  S
C2551      C2557   1.526       .  S
C2551      C2556   1.547       .  S
C2551      C2555   1.535       .  S
C2553      H2554   1.092       .  S
C2553      C2559   1.579       .  S
C2553      C2558   1.542       .  S
C2553      C2560   1.562       .  S
C2555      C2558   1.357       .  D
C2556      C2559   1.401       .  D
C2557      C2560   1.365       .  D
C2557      C2593   1.515       .  S
C2558      C2753   1.472       .  S
C2559      C2706   1.529       .  S
C2560      C2930   1.471       .  S
C2561      C2567   1.538       .  S
C2561      C2566   1.528       .  S
C2561      C2565   1.528       .  S
C2563      H2564   1.111       .  S
C2563      C2569   1.559       .  S
C2563      C2568   1.573       .  S
C2563      C2570   1.570       .  S
C2565      C2568   1.370       .  D
C2566      C2569   1.362       .  D
C2566      C3121   1.496   1_545  S
C2567      C2570   1.376       .  D
C2568      C2809   1.479       .  S
C2569      C2669   1.475       .  S
C2570      C2725   1.500       .  S
C2571      H3072   1.093   1_545  S
C2571      C2577   1.534       .  S
C2571      C2576   1.526       .  S
C2571      C2575   1.544       .  S
H2572      C3071   1.093   1_556  S
C2573      H2574   1.097       .  S
C2573      C2579   1.553       .  S
C2573      C2578   1.571       .  S
C2573      C2580   1.564       .  S
C2575      C2578   1.400       .  D
C2575      C3147   1.530   1_545  S
C2576      C2579   1.362       .  D
C2576      C3591   1.496   1_545  S
C2577      C2580   1.367       .  D
C2578      C2678   1.511       .  S
C2579      C2874   1.474       .  S
C2580      C2697   1.490       .  S
O2581     Cu2589   1.912       .  S
O2581      C2591   1.265       .  A
O2582     Cu2589   1.910       .  S
O2582      C2592   1.265       .  A
O2583     Cu2589   1.936       .  S
O2583      C2593   1.268       .  A
O2584     Cu2589   1.927       .  S
O2584      C2594   1.266       .  A
O2585     Cu2590   2.129       .  S
O2585      C2594   1.289       .  A
O2586     Cu2590   2.126       .  S
O2586      C2593   1.290       .  A
O2587     Cu2590   2.106       .  S
O2587      C2592   1.285       .  A
O2588     Cu2590   2.096       .  S
O2588      C2591   1.286       .  A
Cu2589    Cu2590   2.329       .  S
C2591      C3576   1.496       .  S
O2595     Cu2603   2.095       .  S
O2595      C2605   1.283       .  A
O2596     Cu2603   2.140       .  S
O2596      C2606   1.291       .  A
O2597     Cu2603   2.077       .  S
O2597      C2607   1.281       .  A
O2598     Cu2603   2.090       .  S
O2598      C2608   1.284       .  A
O2599     Cu2604   1.904       .  S
O2599      C2608   1.264       .  A
O2600     Cu2604   1.907       .  S
O2600      C2607   1.264       .  A
O2601     Cu2604   1.920       .  S
O2601      C2606   1.266       .  A
O2602     Cu2604   1.914       .  S
O2602      C2605   1.266       .  A
Cu2603    Cu2604   2.338       .  S
C2605      C3515   1.501       .  S
O2609     Cu2617   2.114       .  S
O2609      C2619   1.288       .  A
O2610     Cu2617   2.129       .  S
O2610      C2620   1.288       .  A
O2611     Cu2617   2.098       .  S
O2611      C2621   1.286       .  A
O2612     Cu2617   2.134       .  S
O2612      C2622   1.289       .  A
O2613     Cu2618   1.902       .  S
O2613      C2622   1.263       .  A
O2614     Cu2618   1.902       .  S
O2614      C2621   1.263       .  A
O2615     Cu2618   1.927       .  S
O2615      C2620   1.267       .  A
O2616     Cu2618   1.928       .  S
O2616      C2619   1.267       .  A
Cu2617    Cu2618   2.326       .  S
C2620      C3525   1.542       .  S
C2621      C3066   1.495   1_556  S
O2623     Cu2631   1.895       .  S
O2623      C2633   1.264       .  A
O2624     Cu2631   1.896       .  S
O2624      C2634   1.263       .  A
O2625     Cu2631   1.910       .  S
O2625      C2635   1.264       .  A
O2626     Cu2631   1.909       .  S
O2626      C2636   1.263       .  A
O2627     Cu2632   2.115       .  S
O2627      C2636   1.289       .  A
O2628     Cu2632   2.105       .  S
O2628      C2635   1.286       .  A
O2629     Cu2632   2.093       .  S
O2629      C2634   1.282       .  A
O2630     Cu2632   2.083       .  S
O2630      C2633   1.283       .  A
Cu2631    Cu2632   2.330       .  S
O2637     Cu2645   2.132       .  S
O2637      C2647   1.289       .  A
O2638     Cu2645   2.123       .  S
O2638      C2648   1.288       .  A
O2639     Cu2645   2.112       .  S
O2639      C2649   1.288       .  A
O2640     Cu2645   2.110       .  S
O2640      C2650   1.288       .  A
O2641     Cu2646   1.900       .  S
O2641      C2650   1.262       .  A
O2642     Cu2646   1.891       .  S
O2642      C2649   1.260       .  A
O2643     Cu2646   1.910       .  S
O2643      C2648   1.265       .  A
O2644     Cu2646   1.916       .  S
O2644      C2647   1.266       .  A
Cu2645    Cu2646   2.334       .  S
C2647      C3075   1.528   1_556  S
C2650      C3516   1.508       .  S
O2651     Cu2659   2.110       .  S
O2651      C2661   1.287       .  A
O2652     Cu2659   2.114       .  S
O2652      C2662   1.288       .  A
O2653     Cu2659   2.097       .  S
O2653      C2663   1.286       .  A
O2654     Cu2659   2.098       .  S
O2654      C2664   1.284       .  A
O2655     Cu2660   1.919       .  S
O2655      C2664   1.266       .  A
O2656     Cu2660   1.926       .  S
O2656      C2663   1.267       .  A
O2657     Cu2660   1.912       .  S
O2657      C2662   1.264       .  A
O2658     Cu2660   1.922       .  S
O2658      C2661   1.266       .  A
Cu2659    Cu2660   2.318       .  S
C2665      C2670   1.395       .  A
C2665      H2675   1.085   1_554  S
C2666      C2667   1.411       .  A
C2666      C2671   1.476       .  S
C2667      C2668   1.400       .  A
C2667      N2672   1.427   1_545  S
C2668      C2669   1.398       .  A
C2668      H2673   1.080   1_545  S
C2670      N2674   1.420   1_554  S
C2671      C3676   1.410   1_545  A
C2671      C2680   1.394       .  A
N2672      O2687   1.262   1_565  A
N2672      O2688   1.260       .  A
N2674      O2685   1.262       .  A
N2674      O2686   1.262       .  A
C2676      C3671   1.405       .  A
C2676      C2677   1.397       .  A
C2677      C3678   1.399       .  A
C2678      C3677   1.407   1_545  A
C2678      C2679   1.429       .  A
C2679      C2680   1.397       .  A
C2679      N2683   1.429       .  S
C2680      H2684   1.085       .  S
N2681      O2691   1.262   1_554  A
N2681      O2692   1.257       .  A
N2683      O2689   1.261       .  A
N2683      O2690   1.263       .  A
C2693      C2698   1.406       .  A
C2693      H2703   1.083   1_554  S
C2694      C2695   1.404       .  A
C2694      C2699   1.486       .  S
C2695      C2696   1.405       .  A
C2695      N2700   1.429       .  S
C2696      C2697   1.408       .  A
C2696      H2701   1.083       .  S
C2698      N2702   1.447   1_554  S
C2699      C2708   1.395       .  A
N2700      O2715   1.262       .  A
N2700      O2716   1.262       .  A
N2702      O2713   1.263       .  A
N2702      O2714   1.259       .  A
C2704      C2705   1.405       .  A
C2704      N2709   1.430       .  S
C2705      H2710   1.078       .  S
C2706      C2707   1.431       .  A
C2707      C2708   1.403       .  A
C2707      N2711   1.426       .  S
C2708      H2712   1.084       .  S
N2709      O2719   1.261       .  A
N2709      O2720   1.262       .  A
N2711      O2717   1.263       .  A
N2711      O2718   1.261       .  A
C2721      C2722   1.401       .  A
C2721      C2726   1.405       .  A
C2722      C2723   1.412       .  A
C2722      C2727   1.494       .  S
C2723      C2724   1.402       .  A
C2724      C2725   1.404       .  A
C2725      C2726   1.424       .  A
C2727      C2732   1.417       .  A
N2728      O2743   1.262       .  A
N2728      O2744   1.262       .  A
N2730      O2741   1.260       .  A
N2730      O2742   1.258       .  A
C2732      C2733   1.399       .  A
C2732      N2737   1.429       .  S
C2733      C2734   1.397       .  A
C2733      H2738   1.085       .  S
C2735      C2736   1.408       .  A
C2735      N2739   1.429   1_455  S
C2736      H2740   1.083   1_455  S
N2737      O2747   1.262       .  A
N2737      O2748   1.262       .  A
N2739      O2745   1.261       .  A
N2739      O2746   1.261       .  A
C2749      C2754   1.396       .  A
C2749      H2759   1.082   1_554  S
C2750      C2751   1.427       .  A
C2750      C2755   1.489       .  S
C2751      C2752   1.405       .  A
C2751      N2756   1.443       .  S
C2752      C2753   1.396       .  A
C2752      H2757   1.083       .  S
C2754      N2758   1.428   1_554  S
C2755      C2764   1.401       .  A
N2756      O2771   1.263       .  A
N2756      O2772   1.263       .  A
N2758      O2769   1.262       .  A
N2758      O2770   1.262       .  A
C2760      C2761   1.395       .  A
C2760      N2765   1.427       .  S
C2761      H2766   1.083       .  S
C2762      C2763   1.420       .  A
C2763      C2764   1.395       .  A
C2763      N2767   1.430       .  S
C2764      H2768   1.084       .  S
N2765      O2775   1.261       .  A
N2765      O2776   1.262       .  A
N2767      O2773   1.263       .  A
N2767      O2774   1.262       .  A
C2777      C2778   1.398       .  A
C2777      C2782   1.406       .  A
C2777      H2787   1.084       .  S
C2778      C2779   1.406       .  A
C2778      C2783   1.484       .  S
C2779      C2780   1.407       .  A
C2779      N2784   1.430       .  S
C2780      C2781   1.409       .  A
C2780      H2785   1.084       .  S
C2781      C2782   1.417       .  A
C2782      N2786   1.439       .  S
C2783      C2788   1.405       .  A
C2783      C2792   1.403       .  A
N2784      O2799   1.261       .  A
N2784      O2800   1.263       .  A
N2786      O2797   1.263       .  A
N2786      O2798   1.260       .  A
C2788      C2789   1.394       .  A
C2788      N2793   1.427       .  S
C2789      C2790   1.403       .  A
C2789      H2794   1.082       .  S
C2790      C2791   1.421       .  A
C2791      C2792   1.406       .  A
N2793      O2803   1.261       .  A
N2793      O2804   1.262       .  A
N2795      O2801   1.262       .  A
N2795      O2802   1.261       .  A
C2805      C2810   1.410       .  A
C2805      H2815   1.083       .  S
C2806      C2807   1.415       .  A
C2806      C2811   1.495       .  S
C2807      C2808   1.396       .  A
C2807      N2812   1.428       .  S
C2808      C2809   1.394       .  A
C2808      H2813   1.079       .  S
C2810      N2814   1.431       .  S
C2811      C2816   1.412       .  A
C2811      C3820   1.406   1_545  A
N2812      O2827   1.262   1_545  A
N2812      O2828   1.262       .  A
N2814      O2825   1.261       .  A
N2814      O2826   1.261       .  A
C2816      C2817   1.399       .  A
C2816      N2821   1.428       .  S
C2817      C2818   1.401       .  A
C2817      H2822   1.081       .  S
C2818      C3819   1.417   1_545  A
C2819      C3818   1.419       .  A
C2819      C2820   1.406       .  A
C2819      N2823   1.432       .  S
C2820      C3811   1.405       .  A
C2820      H2824   1.084       .  S
N2821      O2832   1.262       .  A
N2823      O2829   1.262       .  A
N2823      O2830   1.262       .  A
C2833      C2838   1.409       .  A
C2833      H2843   1.082       .  S
C2834      C2835   1.416       .  A
C2834      C2839   1.495       .  S
C2835      C2836   1.397       .  A
C2835      N2840   1.429       .  S
C2836      C2837   1.391       .  A
C2836      H2841   1.082       .  S
C2838      N2842   1.429       .  S
C2839      C2844   1.413       .  A
C2839      C2848   1.406       .  A
N2840      O2855   1.262       .  A
N2840      O2856   1.262       .  A
N2842      O2853   1.261       .  A
N2842      O2854   1.260       .  A
C2844      C2845   1.399       .  A
C2845      C2846   1.399       .  A
C2846      C2847   1.419       .  A
C2847      C2848   1.403       .  A
C2847      N2851   1.434       .  S
C2848      H2852   1.084       .  S
N2849      O2859   1.262   1_455  A
N2849      O2860   1.261       .  A
N2851      O2857   1.260       .  A
N2851      O2858   1.260       .  A
C2861      C2862   1.406       .  A
C2861      C2866   1.406       .  A
C2861      H2871   1.082       .  S
C2862      C3863   1.416       .  A
C2862      C2867   1.502       .  S
C2863      C3862   1.414       .  A
C2863      C2864   1.397       .  A
C2863      N2868   1.429       .  S
C2864      C3865   1.396       .  A
C2864      H2869   1.072       .  S
C2865      C3864   1.396       .  A
C2865      C2866   1.417       .  A
C2866      N2870   1.429       .  S
C2867      C2872   1.420       .  A
C2867      C3876   1.411       .  A
N2868      O2883   1.262       .  A
N2868      O2884   1.262       .  A
N2870      O2881   1.260       .  A
N2870      O2882   1.261       .  A
C2872      C2873   1.399       .  A
C2872      N2877   1.428       .  S
C2873      C2874   1.394       .  A
C2873      H2878   1.084       .  S
C2874      C3875   1.404   1_545  A
C2875      C3874   1.403       .  A
C2875      C2876   1.402       .  A
C2875      N2879   1.430       .  S
C2876      C3867   1.411       .  A
C2876      H2880   1.081       .  S
N2877      O2887   1.262       .  A
N2877      O2888   1.262       .  A
N2879      O2885   1.262       .  A
N2879      O2886   1.261       .  A
C2889      C2890   1.399       .  A
C2889      C2894   1.407       .  A
C2889      H2899   1.084       .  S
C2890      C2891   1.402       .  A
C2890      C2895   1.475       .  S
C2891      C2892   1.388       .  A
C2891      N2896   1.428       .  S
C2892      C2893   1.397       .  A
C2892      H2897   1.075       .  S
C2893      C2894   1.433       .  A
C2894      N2898   1.444       .  S
C2895      C3900   1.404       .  A
C2895      C2904   1.391       .  A
N2896      O2911   1.262       .  A
N2896      O2912   1.262       .  A
N2898      O2909   1.264       .  A
N2898      O2910   1.259       .  A
C2900      C3895   1.402       .  A
C2900      C2901   1.399       .  A
C2900      N2905   1.433       .  S
C2901      C3902   1.403       .  A
C2901      H2906   1.072       .  S
C2902      C3901   1.403       .  A
C2902      C2903   1.439       .  A
C2903      C2904   1.402       .  A
C2903      N2907   1.429       .  S
C2904      H2908   1.085       .  S
N2905      O2915   1.263       .  A
N2905      O2916   1.262       .  A
N2907      O2913   1.261       .  A
N2907      O2914   1.263       .  A
C2917      C2918   1.394       .  A
C2917      C2922   1.397       .  A
C2917      H2927   1.084       .  S
C2918      C2919   1.409       .  A
C2918      C2923   1.481       .  S
C2919      C2920   1.397       .  A
C2919      N2924   1.429       .  S
C2920      C2921   1.407       .  A
C2920      H2925   1.081       .  S
C2921      C2922   1.426       .  A
C2922      N2926   1.432       .  S
C2923      C2928   1.409       .  A
C2923      C2932   1.407       .  A
N2924      O2939   1.262       .  A
N2924      O2940   1.262       .  A
N2926      O2937   1.264       .  A
N2926      O2938   1.254       .  A
C2928      C2929   1.405       .  A
C2928      N2933   1.430       .  S
C2929      C2930   1.404       .  A
C2929      H2934   1.083       .  S
C2930      C2931   1.402       .  A
C2931      C2932   1.396       .  A
C2931      N2935   1.431       .  S
C2932      H2936   1.084       .  S
N2933      O2943   1.262       .  A
N2933      O2944   1.261       .  A
N2935      O2941   1.262       .  A
N2935      O2942   1.261       .  A
C2945      C2946   1.400       .  A
C2945      C2950   1.403       .  A
C2945      H2955   1.080       .  S
C2946      C2947   1.418       .  A
C2946      C2951   1.506       .  S
C2947      C2948   1.397       .  A
C2947      N2952   1.421       .  S
C2948      C2949   1.395       .  A
C2948      H2953   1.083       .  S
C2949      C2950   1.422       .  A
C2950      N2954   1.429       .  S
C2951      C2956   1.424       .  A
C2951      C2960   1.407       .  A
N2952      O2967   1.263       .  A
N2952      O2968   1.260       .  A
N2954      O2965   1.262       .  A
N2954      O2966   1.260       .  A
C2956      C2957   1.402       .  A
C2956      N2961   1.428       .  S
C2957      C2958   1.396       .  A
C2957      H2962   1.084       .  S
C2958      C2959   1.411       .  A
C2959      C2960   1.402       .  A
C2959      N2963   1.429       .  S
C2960      H2964   1.082       .  S
N2961      O2971   1.263       .  A
N2961      O2972   1.260       .  A
N2963      O2969   1.262       .  A
N2963      O2970   1.262       .  A
C2973      C2974   1.404       .  A
C2973      C2978   1.398       .  A
C2973      H2983   1.083       .  S
C2974      C2975   1.417       .  A
C2974      C2979   1.491       .  S
C2975      C2976   1.400       .  A
C2975      N2980   1.427       .  S
C2976      C2977   1.393       .  A
C2976      H2981   1.077       .  S
C2977      C2978   1.401       .  A
C2978      N2982   1.419       .  S
C2979      C2984   1.412       .  A
C2979      C2988   1.401       .  A
N2980      O2995   1.262       .  A
N2980      O2996   1.262       .  A
N2982      O2993   1.262       .  A
N2982      O2994   1.260       .  A
C2984      C2985   1.396       .  A
C2984      N2989   1.427       .  S
C2985      C2986   1.398       .  A
C2985      H2990   1.083       .  S
C2986      C2987   1.426       .  A
C2987      C2988   1.409       .  A
C2987      N2991   1.436       .  S
C2988      H2992   1.083       .  S
N2989      O2999   1.262       .  A
N2989      O3000   1.262       .  A
N2991      O2997   1.256       .  A
N2991      O2998   1.262       .  A
C3001      H3002   1.093       .  S
C3001      C3007   1.533       .  S
C3001      C3006   1.536       .  S
C3001      C3005   1.531       .  S
C3003      H3004   1.110       .  S
C3003      C3009   1.567       .  S
C3003      C3008   1.570       .  S
C3003      C3010   1.569       .  S
C3005      C3008   1.370       .  D
C3005      C3148   1.509       .  S
C3006      C3009   1.380       .  D
C3006      C3107   1.499       .  S
C3007      C3010   1.368       .  D
C3007      C3162   1.505       .  S
C3008      C3458   1.485       .  S
C3009      C3421   1.502       .  S
C3010      C3486   1.496       .  S
C3011      C3017   1.530       .  S
C3011      C3016   1.529       .  S
C3011      C3015   1.529       .  S
C3013      H3014   1.111       .  S
C3013      C3019   1.577       .  S
C3013      C3018   1.570       .  S
C3013      C3020   1.549       .  S
C3015      C3018   1.368       .  D
C3016      C3019   1.370       .  D
C3017      C3020   1.366       .  D
C3017      C3133   1.487       .  S
C3018      C3365   1.489       .  S
C3019      C3393   1.488       .  S
C3020      C3477   1.476       .  S
C3021      C3027   1.527       .  S
C3021      C3026   1.533       .  S
C3021      C3025   1.548       .  S
C3023      H3024   1.092       .  S
C3023      C3029   1.562       .  S
C3023      C3028   1.572       .  S
C3023      C3030   1.566       .  S
C3025      C3028   1.410       .  D
C3026      C3029   1.367       .  D
C3027      C3030   1.358       .  D
C3028      C3402   1.522       .  S
C3029      C3318   1.496       .  S
C3030      C3337   1.481       .  S
C3031      C3037   1.531       .  S
C3031      C3036   1.546       .  S
C3031      C3035   1.535       .  S
C3033      H3034   1.103       .  S
C3033      C3039   1.561       .  S
C3033      C3038   1.565       .  S
C3033      C3040   1.568       .  S
C3035      C3038   1.372       .  D
C3036      C3039   1.394       .  D
C3036      C3122   1.523       .  S
C3037      C3040   1.367       .  D
C3038      C3281   1.488       .  S
C3039      C3449   1.500       .  S
C3040      C3346   1.492       .  S
C3041      C3047   1.532       .  S
C3041      C3046   1.534       .  S
C3041      C3045   1.538       .  S
C3043      H3044   1.104       .  S
C3043      C3049   1.564       .  S
C3043      C3048   1.552       .  S
C3043      C3050   1.554       .  S
C3045      C3048   1.384       .  D
C3045      C3619   1.516   1_554  S
C3046      C3049   1.375       .  D
C3047      C3050   1.366       .  D
C3048      C3262   1.488       .  S
C3049      C3290   1.488       .  S
C3050      C3234   1.479       .  S
C3051      H3552   1.093   1_554  S
C3051      C3057   1.526       .  S
C3051      C3056   1.546       .  S
C3051      C3055   1.535       .  S
H3052      C3551   1.093       .  S
C3053      H3054   1.091       .  S
C3053      C3059   1.578       .  S
C3053      C3058   1.542       .  S
C3053      C3060   1.560       .  S
C3055      C3058   1.358       .  D
C3055      C3649   1.494   1_554  S
C3056      C3059   1.401       .  D
C3056      C3664   1.518   1_554  S
C3057      C3060   1.364       .  D
C3057      C3093   1.513       .  S
C3058      C3253   1.471       .  S
C3059      C3206   1.528       .  S
C3060      C3430   1.472       .  S
C3061      C3067   1.538       .  S
C3061      C3066   1.531       .  S
C3061      C3065   1.528       .  S
C3063      H3064   1.111       .  S
C3063      C3069   1.559       .  S
C3063      C3068   1.574       .  S
C3063      C3070   1.570       .  S
C3065      C3068   1.372       .  D
C3066      C3069   1.362       .  D
C3067      C3070   1.376       .  D
C3068      C3309   1.478       .  S
C3069      C3169   1.480       .  S
C3070      C3225   1.502       .  S
C3071      C3077   1.532       .  S
C3071      C3076   1.524       .  S
C3071      C3075   1.541       .  S
C3073      H3074   1.099       .  S
C3073      C3079   1.552       .  S
C3073      C3078   1.566       .  S
C3073      C3080   1.559       .  S
C3075      C3078   1.398       .  D
C3076      C3079   1.361       .  D
C3077      C3080   1.365       .  D
C3077      C3635   1.499   1_554  S
C3078      C3178   1.502       .  S
C3079      C3374   1.470       .  S
C3080      C3197   1.482       .  S
O3081     Cu3089   1.913       .  S
O3081      C3091   1.266       .  A
O3082     Cu3089   1.911       .  S
O3082      C3092   1.265       .  A
O3083     Cu3089   1.933       .  S
O3083      C3093   1.267       .  A
O3084     Cu3089   1.927       .  S
O3084      C3094   1.266       .  A
O3085     Cu3090   2.128       .  S
O3085      C3094   1.289       .  A
O3086     Cu3090   2.123       .  S
O3086      C3093   1.289       .  A
O3087     Cu3090   2.101       .  S
O3087      C3092   1.284       .  A
O3088     Cu3090   2.093       .  S
O3088      C3091   1.285       .  A
Cu3089    Cu3090   2.331       .  S
O3095     Cu3103   2.096       .  S
O3095      C3105   1.284       .  A
O3096     Cu3103   2.138       .  S
O3096      C3106   1.290       .  A
O3097     Cu3103   2.073       .  S
O3097      C3107   1.281       .  A
O3098     Cu3103   2.088       .  S
O3098      C3108   1.284       .  A
O3099     Cu3104   1.907       .  S
O3099      C3108   1.264       .  A
O3100     Cu3104   1.907       .  S
O3100      C3107   1.264       .  A
O3101     Cu3104   1.920       .  S
O3101      C3106   1.266       .  A
O3102     Cu3104   1.915       .  S
O3102      C3105   1.266       .  A
Cu3103    Cu3104   2.338       .  S
O3109     Cu3117   2.112       .  S
O3109      C3119   1.287       .  A
O3110     Cu3117   2.130       .  S
O3110      C3120   1.288       .  A
O3111     Cu3117   2.099       .  S
O3111      C3121   1.286       .  A
O3112     Cu3117   2.137       .  S
O3112      C3122   1.289       .  A
O3113     Cu3118   1.908       .  S
O3113      C3122   1.264       .  A
O3114     Cu3118   1.908       .  S
O3114      C3121   1.264       .  A
O3115     Cu3118   1.929       .  S
O3115      C3120   1.267       .  A
O3116     Cu3118   1.930       .  S
O3116      C3119   1.267       .  A
Cu3117    Cu3118   2.326       .  S
C3119      C3545   1.514       .  S
O3123     Cu3131   1.897       .  S
O3123      C3133   1.265       .  A
O3124     Cu3131   1.896       .  S
O3124      C3134   1.264       .  A
O3125     Cu3131   1.910       .  S
O3125      C3135   1.264       .  A
O3126     Cu3131   1.909       .  S
O3126      C3136   1.263       .  A
O3127     Cu3132   2.112       .  S
O3127      C3136   1.288       .  A
O3128     Cu3132   2.100       .  S
O3128      C3135   1.286       .  A
O3129     Cu3132   2.092       .  S
O3129      C3134   1.282       .  A
O3130     Cu3132   2.078       .  S
O3130      C3133   1.283       .  A
Cu3131    Cu3132   2.333       .  S
C3135      C3577   1.496       .  S
O3137     Cu3145   2.127       .  S
O3137      C3147   1.289       .  A
O3138     Cu3145   2.121       .  S
O3138      C3148   1.287       .  A
O3139     Cu3145   2.106       .  S
O3139      C3149   1.288       .  A
O3140     Cu3145   2.107       .  S
O3140      C3150   1.287       .  A
O3141     Cu3146   1.895       .  S
O3141      C3150   1.262       .  A
O3142     Cu3146   1.888       .  S
O3142      C3149   1.260       .  A
O3143     Cu3146   1.913       .  S
O3143      C3148   1.265       .  A
O3144     Cu3146   1.919       .  S
O3144      C3147   1.266       .  A
Cu3145    Cu3146   2.335       .  S
C3149      C3555   1.491       .  S
O3151     Cu3159   2.105       .  S
O3151      C3161   1.286       .  A
O3152     Cu3159   2.113       .  S
O3152      C3162   1.288       .  A
O3153     Cu3159   2.098       .  S
O3153      C3163   1.286       .  A
O3154     Cu3159   2.096       .  S
O3154      C3164   1.284       .  A
O3155     Cu3160   1.921       .  S
O3155      C3164   1.266       .  A
O3156     Cu3160   1.926       .  S
O3156      C3163   1.267       .  A
O3157     Cu3160   1.911       .  S
O3157      C3162   1.264       .  A
O3158     Cu3160   1.923       .  S
O3158      C3161   1.266       .  A
Cu3159    Cu3160   2.312       .  S
C3164      C3556   1.518       .  S
C3165      C3666   1.400       .  A
C3165      C3170   1.395       .  A
C3165      H3175   1.085       .  S
C3166      C3665   1.396       .  A
C3166      C3167   1.411       .  A
C3166      C3171   1.478       .  S
C3167      C3168   1.401       .  A
C3167      N3172   1.427       .  S
C3168      C3169   1.399       .  A
C3168      H3173   1.080       .  S
C3169      C3670   1.409       .  A
C3170      C3669   1.407       .  A
C3170      N3174   1.422       .  S
C3171      C3180   1.395       .  A
N3172      O3187   1.262       .  A
N3172      O3188   1.260       .  A
N3174      O3185   1.262       .  A
N3174      O3186   1.262       .  A
C3176      C3177   1.397       .  A
C3176      N3681   1.420       .  S
C3177      H3682   1.081       .  S
C3178      C3179   1.429       .  A
C3179      C3180   1.400       .  A
C3179      N3183   1.430       .  S
C3180      H3184   1.085       .  S
N3181      C3676   1.442       .  S
N3181      O3191   1.263       .  A
N3181      O3192   1.262       .  A
H3182      C3677   1.078       .  S
N3183      O3189   1.261       .  A
N3183      O3190   1.263       .  A
C3193      C3694   1.395       .  A
C3193      C3198   1.405       .  A
C3193      H3203   1.083       .  S
C3194      C3693   1.395       .  A
C3194      C3195   1.403       .  A
C3194      C3199   1.479       .  S
C3195      C3196   1.403       .  A
C3195      N3200   1.429       .  S
C3196      C3197   1.407       .  A
C3196      H3201   1.083       .  S
C3197      C3698   1.425       .  A
C3198      C3697   1.425       .  A
C3198      N3202   1.446       .  S
C3199      C3704   1.401   1_554  A
C3199      C3208   1.394       .  A
N3200      O3215   1.262       .  A
N3200      O3216   1.262       .  A
N3202      O3213   1.263       .  A
N3202      O3214   1.259       .  A
C3204      C3699   1.400       .  A
C3204      C3205   1.402       .  A
C3204      N3209   1.430       .  S
C3205      C3706   1.412       .  A
C3205      H3210   1.076       .  S
C3206      C3705   1.412   1_554  A
C3206      C3207   1.431       .  A
C3207      C3208   1.401       .  A
C3207      N3211   1.425       .  S
C3208      H3212   1.084       .  S
N3209      O3219   1.261       .  A
N3209      O3220   1.262       .  A
N3211      O3217   1.263       .  A
N3211      O3218   1.261       .  A
C3221      C3222   1.401       .  A
C3221      C3226   1.406   1_554  A
C3221      H3731   1.084   1_554  S
C3222      C3223   1.412       .  A
C3222      C3227   1.494       .  S
C3223      C3224   1.402       .  A
C3224      C3225   1.404       .  A
C3225      C3226   1.426   1_554  A
C3226      N3730   1.432       .  S
C3227      C3232   1.416       .  A
N3228      O3243   1.262       .  A
N3228      O3244   1.262       .  A
N3230      C3726   1.432       .  S
N3230      O3241   1.261       .  A
N3230      O3242   1.258       .  A
H3231      C3721   1.084       .  S
C3232      C3233   1.400       .  A
C3232      N3237   1.429       .  S
C3233      C3234   1.397       .  A
C3233      H3238   1.085       .  S
C3235      C3236   1.407       .  A
C3235      N3239   1.429   1_455  S
C3236      H3240   1.083   1_455  S
N3237      O3247   1.262   1_554  A
N3237      O3248   1.262       .  A
N3239      O3245   1.261       .  A
N3239      O3246   1.262       .  A
C3249      C3750   1.400       .  A
C3249      C3254   1.397       .  A
C3249      H3259   1.084       .  S
C3250      C3749   1.403       .  A
C3250      C3251   1.426       .  A
C3250      C3255   1.487       .  S
C3251      C3252   1.405       .  A
C3251      N3256   1.444       .  S
C3252      C3253   1.396       .  A
C3252      H3257   1.084       .  S
C3253      C3754   1.405   1_554  A
C3254      C3753   1.409       .  A
C3254      N3258   1.428       .  S
C3255      C3760   1.413   1_554  A
C3255      C3264   1.401       .  A
N3256      O3271   1.263       .  A
N3256      O3272   1.262       .  A
N3258      O3269   1.262       .  A
N3258      O3270   1.262       .  A
C3260      C3755   1.410       .  A
C3260      C3261   1.395       .  A
C3260      N3265   1.426       .  S
C3261      C3762   1.400       .  A
C3261      H3266   1.083       .  S
C3262      C3761   1.400   1_554  A
C3262      C3263   1.420       .  A
C3263      C3264   1.396       .  A
C3263      N3267   1.430       .  S
C3264      H3268   1.084       .  S
N3265      O3275   1.261       .  A
N3265      O3276   1.262       .  A
N3267      O3273   1.262       .  A
N3267      O3274   1.262       .  A
C3277      C3278   1.398       .  A
C3277      C3282   1.404       .  A
C3277      H3287   1.084       .  S
C3278      C3279   1.407       .  A
C3278      C3283   1.484       .  S
C3279      C3280   1.407       .  A
C3279      N3284   1.431       .  S
C3280      C3281   1.409       .  A
C3280      H3285   1.084       .  S
C3281      C3282   1.417       .  A
C3282      N3286   1.438       .  S
C3283      C3288   1.407       .  A
C3283      C3292   1.403       .  A
N3284      O3299   1.261       .  A
N3284      O3300   1.263       .  A
N3286      O3297   1.263       .  A
N3286      O3298   1.259       .  A
C3288      C3289   1.393       .  A
C3288      N3293   1.428       .  S
C3289      C3290   1.401       .  A
C3289      H3294   1.082       .  S
C3290      C3291   1.420       .  A
C3291      C3292   1.406       .  A
N3293      O3303   1.261       .  A
N3293      O3304   1.262       .  A
N3295      O3301   1.262       .  A
N3295      O3302   1.262       .  A
C3305      C3310   1.409       .  A
C3305      H3315   1.083       .  S
C3306      C3307   1.414       .  A
C3306      C3311   1.493       .  S
C3307      C3308   1.395       .  A
C3307      N3312   1.428       .  S
C3308      C3309   1.393       .  A
C3308      H3313   1.078       .  S
C3310      N3314   1.431       .  S
C3311      C3316   1.411       .  A
N3312      O3327   1.262       .  A
N3312      O3328   1.262       .  A
N3314      O3325   1.261       .  A
N3314      O3326   1.261       .  A
C3316      C3317   1.399       .  A
C3316      N3321   1.427       .  S
C3317      C3318   1.401       .  A
C3317      H3322   1.082       .  S
C3319      C3320   1.404       .  A
C3319      N3323   1.431   1_545  S
C3320      H3324   1.084   1_545  S
N3321      O3332   1.262       .  A
N3323      O3329   1.262       .  A
N3323      O3330   1.262       .  A
C3333      C3338   1.408       .  A
C3333      H3343   1.083       .  S
C3334      C3335   1.417       .  A
C3334      C3339   1.499       .  S
C3335      C3336   1.398       .  A
C3335      N3340   1.429       .  S
C3336      C3337   1.391       .  A
C3336      H3341   1.082       .  S
C3338      N3342   1.428       .  S
C3339      C3344   1.415       .  A
C3339      C3348   1.407       .  A
N3340      O3355   1.262       .  A
N3340      O3356   1.262       .  A
N3342      O3353   1.261       .  A
N3342      O3354   1.259       .  A
C3344      C3345   1.400       .  A
C3345      C3346   1.399       .  A
C3346      C3347   1.419       .  A
C3347      C3348   1.404       .  A
C3347      N3351   1.434       .  S
C3348      H3352   1.083       .  S
N3349      O3359   1.262   1_455  A
N3349      O3360   1.262       .  A
N3351      O3357   1.260       .  A
N3351      O3358   1.260       .  A
C3361      C3362   1.405       .  A
C3361      C3366   1.404       .  A
C3361      H3371   1.082       .  S
C3362      C3367   1.497       .  S
C3363      C3364   1.399       .  A
C3363      N3368   1.428       .  S
C3364      H3369   1.077       .  S
C3365      C3366   1.416       .  A
C3366      N3370   1.428       .  S
C3367      C3372   1.420       .  A
N3368      O3383   1.262   1_545  A
N3368      O3384   1.262       .  A
N3370      O3381   1.260       .  A
N3370      O3382   1.261       .  A
C3372      C3373   1.398       .  A
C3372      N3377   1.429       .  S
C3373      C3374   1.394       .  A
C3373      H3378   1.083       .  S
C3375      C3376   1.404       .  A
C3375      N3379   1.430   1_545  S
C3376      H3380   1.080   1_545  S
N3377      O3387   1.262       .  A
N3377      O3388   1.262       .  A
N3379      O3385   1.262       .  A
N3379      O3386   1.261       .  A
C3389      C3390   1.399       .  A
C3389      C3394   1.408       .  A
C3389      H3399   1.084       .  S
C3390      C3391   1.403       .  A
C3390      C3395   1.476       .  S
C3391      C3392   1.389       .  A
C3391      N3396   1.428       .  S
C3392      C3393   1.397       .  A
C3392      H3397   1.074       .  S
C3393      C3394   1.432       .  A
C3394      N3398   1.444       .  S
C3395      C3404   1.391       .  A
N3396      O3411   1.262       .  A
N3396      O3412   1.262       .  A
N3398      O3409   1.264       .  A
N3398      O3410   1.259       .  A
C3400      C3401   1.400       .  A
C3400      N3405   1.434   1_545  S
C3401      H3406   1.072   1_545  S
C3402      C3403   1.439       .  A
C3403      C3404   1.403       .  A
C3403      N3407   1.429       .  S
C3404      H3408   1.085       .  S
N3405      O3415   1.263       .  A
N3405      O3416   1.262       .  A
N3407      O3413   1.261       .  A
N3407      O3414   1.263       .  A
C3417      C3418   1.394       .  A
C3417      C3422   1.398       .  A
C3417      H3427   1.084       .  S
C3418      C3419   1.409       .  A
C3418      C3423   1.481       .  S
C3419      C3420   1.397       .  A
C3419      N3424   1.429       .  S
C3420      C3421   1.406       .  A
C3420      H3425   1.081       .  S
C3421      C3422   1.427       .  A
C3422      N3426   1.433       .  S
C3423      C3428   1.409       .  A
C3423      C3432   1.406       .  A
N3424      O3439   1.262       .  A
N3424      O3440   1.262       .  A
N3426      O3437   1.264       .  A
N3426      O3438   1.255       .  A
C3428      C3429   1.405       .  A
C3428      N3433   1.430       .  S
C3429      C3430   1.404       .  A
C3429      H3434   1.083       .  S
C3430      C3431   1.402       .  A
C3431      C3432   1.396       .  A
C3431      N3435   1.430       .  S
C3432      H3436   1.084       .  S
N3433      O3443   1.262       .  A
N3433      O3444   1.261       .  A
N3435      O3441   1.262       .  A
N3435      O3442   1.261       .  A
C3445      C3446   1.400       .  A
C3445      C3450   1.404       .  A
C3445      H3455   1.080       .  S
C3446      C3447   1.419       .  A
C3446      C3451   1.509       .  S
C3447      C3448   1.400       .  A
C3447      N3452   1.421       .  S
C3448      C3449   1.396       .  A
C3448      H3453   1.082       .  S
C3449      C3450   1.425       .  A
C3450      N3454   1.429       .  S
C3451      C3456   1.424       .  A
C3451      C3460   1.408       .  A
N3452      O3467   1.263       .  A
N3452      O3468   1.261       .  A
N3454      O3465   1.262       .  A
N3454      O3466   1.260       .  A
C3456      C3457   1.403       .  A
C3456      N3461   1.428       .  S
C3457      C3458   1.396       .  A
C3457      H3462   1.084       .  S
C3458      C3459   1.411       .  A
C3459      C3460   1.403       .  A
C3459      N3463   1.429       .  S
C3460      H3464   1.081       .  S
N3461      O3471   1.262       .  A
N3461      O3472   1.260       .  A
N3463      O3469   1.262       .  A
N3463      O3470   1.262       .  A
C3473      C3474   1.403       .  A
C3473      C3478   1.395       .  A
C3473      H3483   1.082       .  S
C3474      C3475   1.418       .  A
C3474      C3479   1.490       .  S
C3475      C3476   1.400       .  A
C3475      N3480   1.428       .  S
C3476      C3477   1.393       .  A
C3476      H3481   1.076       .  S
C3477      C3478   1.399       .  A
C3478      N3482   1.417       .  S
C3479      C3484   1.413       .  A
C3479      C3488   1.400       .  A
N3480      O3495   1.262       .  A
N3480      O3496   1.262       .  A
N3482      O3493   1.262       .  A
N3482      O3494   1.260       .  A
C3484      C3485   1.395       .  A
C3484      N3489   1.428       .  S
C3485      C3486   1.397       .  A
C3485      H3490   1.083       .  S
C3486      C3487   1.429       .  A
C3487      C3488   1.410       .  A
C3487      N3491   1.438       .  S
C3488      H3492   1.083       .  S
N3489      O3499   1.262       .  A
N3489      O3500   1.261       .  A
N3491      O3497   1.256       .  A
N3491      O3498   1.263       .  A
C3501      H3502   1.092       .  S
C3501      C3507   1.535       .  S
C3501      C3506   1.538       .  S
C3501      C3505   1.531       .  S
C3503      H3504   1.109       .  S
C3503      C3509   1.567       .  S
C3503      C3508   1.571       .  S
C3503      C3510   1.570       .  S
C3505      C3508   1.372       .  D
C3505      C3648   1.513       .  S
C3506      C3509   1.381       .  D
C3506      C3607   1.501       .  S
C3507      C3510   1.369       .  D
C3507      C3662   1.507       .  S
C3508      C3958   1.485       .  S
C3509      C3921   1.505       .  S
C3510      C3986   1.498       .  S
C3511      C3517   1.533       .  S
C3511      C3516   1.528       .  S
C3511      C3515   1.530       .  S
C3513      H3514   1.111       .  S
C3513      C3519   1.578       .  S
C3513      C3518   1.574       .  S
C3513      C3520   1.550       .  S
C3515      C3518   1.372       .  D
C3516      C3519   1.368       .  D
C3517      C3520   1.367       .  D
C3517      C3633   1.487       .  S
C3518      C3865   1.496       .  S
C3519      C3893   1.489       .  S
C3520      C3977   1.478       .  S
C3521      C3527   1.528       .  S
C3521      C3526   1.533       .  S
C3521      C3525   1.547       .  S
C3523      H3524   1.092       .  S
C3523      C3529   1.562       .  S
C3523      C3528   1.572       .  S
C3523      C3530   1.565       .  S
C3525      C3528   1.411       .  D
C3526      C3529   1.367       .  D
C3527      C3530   1.358       .  D
C3528      C3902   1.522       .  S
C3529      C3818   1.495       .  S
C3530      C3837   1.481       .  S
C3531      C3537   1.530       .  S
C3531      C3536   1.545       .  S
C3531      C3535   1.535       .  S
C3533      H3534   1.102       .  S
C3533      C3539   1.560       .  S
C3533      C3538   1.562       .  S
C3533      C3540   1.567       .  S
C3535      C3538   1.371       .  D
C3536      C3539   1.395       .  D
C3536      C3622   1.524       .  S
C3537      C3540   1.366       .  D
C3538      C3781   1.488       .  S
C3539      C3949   1.498       .  S
C3540      C3846   1.489       .  S
C3541      C3547   1.531       .  S
C3541      C3546   1.537       .  S
C3541      C3545   1.536       .  S
C3543      H3544   1.104       .  S
C3543      C3549   1.565       .  S
C3543      C3548   1.552       .  S
C3543      C3550   1.558       .  S
C3545      C3548   1.381       .  D
C3546      C3549   1.377       .  D
C3547      C3550   1.366       .  D
C3548      C3762   1.486       .  S
C3549      C3790   1.492       .  S
C3550      C3734   1.480       .  S
C3551      C3557   1.526       .  S
C3551      C3556   1.545       .  S
C3551      C3555   1.535       .  S
C3553      H3554   1.091       .  S
C3553      C3559   1.577       .  S
C3553      C3558   1.541       .  S
C3553      C3560   1.564       .  S
C3555      C3558   1.357       .  D
C3556      C3559   1.401       .  D
C3557      C3560   1.366       .  D
C3557      C3593   1.516       .  S
C3558      C3753   1.472       .  S
C3559      C3706   1.527       .  S
C3560      C3930   1.474       .  S
C3561      C3567   1.538       .  S
C3561      C3566   1.530       .  S
C3561      C3565   1.528       .  S
C3563      H3564   1.111       .  S
C3563      C3569   1.562       .  S
C3563      C3568   1.574       .  S
C3563      C3570   1.572       .  S
C3565      C3568   1.372       .  D
C3566      C3569   1.363       .  D
C3567      C3570   1.377       .  D
C3568      C3809   1.479       .  S
C3569      C3669   1.481       .  S
C3570      C3725   1.505       .  S
C3571      C3577   1.532       .  S
C3571      C3576   1.525       .  S
C3571      C3575   1.540       .  S
C3573      H3574   1.101       .  S
C3573      C3579   1.555       .  S
C3573      C3578   1.565       .  S
C3573      C3580   1.557       .  S
C3575      C3578   1.394       .  D
C3576      C3579   1.363       .  D
C3577      C3580   1.364       .  D
C3578      C3678   1.496       .  S
C3579      C3874   1.471       .  S
C3580      C3697   1.481       .  S
O3581     Cu3589   1.914       .  S
O3581      C3591   1.265       .  A
O3582     Cu3589   1.911       .  S
O3582      C3592   1.265       .  A
O3583     Cu3589   1.936       .  S
O3583      C3593   1.268       .  A
O3584     Cu3589   1.926       .  S
O3584      C3594   1.266       .  A
O3585     Cu3590   2.128       .  S
O3585      C3594   1.289       .  A
O3586     Cu3590   2.127       .  S
O3586      C3593   1.289       .  A
O3587     Cu3590   2.104       .  S
O3587      C3592   1.285       .  A
O3588     Cu3590   2.093       .  S
O3588      C3591   1.286       .  A
Cu3589    Cu3590   2.331       .  S
O3595     Cu3603   2.096       .  S
O3595      C3605   1.284       .  A
O3596     Cu3603   2.135       .  S
O3596      C3606   1.290       .  A
O3597     Cu3603   2.079       .  S
O3597      C3607   1.281       .  A
O3598     Cu3603   2.091       .  S
O3598      C3608   1.284       .  A
O3599     Cu3604   1.907       .  S
O3599      C3608   1.264       .  A
O3600     Cu3604   1.907       .  S
O3600      C3607   1.264       .  A
O3601     Cu3604   1.915       .  S
O3601      C3606   1.265       .  A
O3602     Cu3604   1.908       .  S
O3602      C3605   1.265       .  A
Cu3603    Cu3604   2.339       .  S
O3609     Cu3617   2.112       .  S
O3609      C3619   1.288       .  A
O3610     Cu3617   2.129       .  S
O3610      C3620   1.288       .  A
O3611     Cu3617   2.103       .  S
O3611      C3621   1.285       .  A
O3612     Cu3617   2.138       .  S
O3612      C3622   1.290       .  A
O3613     Cu3618   1.910       .  S
O3613      C3622   1.264       .  A
O3614     Cu3618   1.906       .  S
O3614      C3621   1.264       .  A
O3615     Cu3618   1.928       .  S
O3615      C3620   1.267       .  A
O3616     Cu3618   1.926       .  S
O3616      C3619   1.266       .  A
Cu3617    Cu3618   2.326       .  S
O3623     Cu3631   1.890       .  S
O3623      C3633   1.263       .  A
O3624     Cu3631   1.891       .  S
O3624      C3634   1.263       .  A
O3625     Cu3631   1.908       .  S
O3625      C3635   1.264       .  A
O3626     Cu3631   1.908       .  S
O3626      C3636   1.263       .  A
O3627     Cu3632   2.113       .  S
O3627      C3636   1.289       .  A
O3628     Cu3632   2.107       .  S
O3628      C3635   1.286       .  A
O3629     Cu3632   2.094       .  S
O3629      C3634   1.283       .  A
O3630     Cu3632   2.084       .  S
O3630      C3633   1.283       .  A
Cu3631    Cu3632   2.333       .  S
O3637     Cu3645   2.136       .  S
O3637      C3647   1.289       .  A
O3638     Cu3645   2.128       .  S
O3638      C3648   1.288       .  A
O3639     Cu3645   2.110       .  S
O3639      C3649   1.288       .  A
O3640     Cu3645   2.110       .  S
O3640      C3650   1.288       .  A
O3641     Cu3646   1.899       .  S
O3641      C3650   1.262       .  A
O3642     Cu3646   1.893       .  S
O3642      C3649   1.261       .  A
O3643     Cu3646   1.917       .  S
O3643      C3648   1.266       .  A
O3644     Cu3646   1.924       .  S
O3644      C3647   1.267       .  A
Cu3645    Cu3646   2.334       .  S
O3651     Cu3659   2.106       .  S
O3651      C3661   1.286       .  A
O3652     Cu3659   2.115       .  S
O3652      C3662   1.288       .  A
O3653     Cu3659   2.100       .  S
O3653      C3663   1.286       .  A
O3654     Cu3659   2.100       .  S
O3654      C3664   1.284       .  A
O3655     Cu3660   1.918       .  S
O3655      C3664   1.266       .  A
O3656     Cu3660   1.925       .  S
O3656      C3663   1.267       .  A
O3657     Cu3660   1.912       .  S
O3657      C3662   1.264       .  A
O3658     Cu3660   1.925       .  S
O3658      C3661   1.266       .  A
Cu3659    Cu3660   2.313       .  S
C3665      C3670   1.396       .  A
C3665      H3675   1.085   1_554  S
C3666      C3667   1.412       .  A
C3666      C3671   1.483       .  S
C3667      C3668   1.403       .  A
C3667      N3672   1.427       .  S
C3668      C3669   1.399       .  A
C3668      H3673   1.079       .  S
C3670      N3674   1.422   1_554  S
C3671      C3680   1.397       .  A
N3672      O3687   1.262       .  A
N3672      O3688   1.261       .  A
N3674      O3685   1.262       .  A
N3674      O3686   1.262       .  A
C3676      C3677   1.406       .  A
C3678      C3679   1.426       .  A
C3679      C3680   1.399       .  A
C3679      N3683   1.430       .  S
C3680      H3684   1.085       .  S
N3681      O3691   1.262   1_554  A
N3681      O3692   1.257       .  A
N3683      O3689   1.261       .  A
N3683      O3690   1.262       .  A
C3693      C3698   1.405       .  A
C3693      H3703   1.083   1_554  S
C3694      C3695   1.403       .  A
C3694      C3699   1.478       .  S
C3695      C3696   1.402       .  A
C3695      N3700   1.429       .  S
C3696      C3697   1.406       .  A
C3696      H3701   1.083       .  S
C3698      N3702   1.447   1_554  S
C3699      C3708   1.393       .  A
N3700      O3715   1.262       .  A
N3700      O3716   1.262       .  A
N3702      O3713   1.263       .  A
N3702      O3714   1.259       .  A
C3704      C3705   1.403       .  A
C3704      N3709   1.431       .  S
C3705      H3710   1.076       .  S
C3706      C3707   1.431       .  A
C3707      C3708   1.400       .  A
C3707      N3711   1.426       .  S
C3708      H3712   1.084       .  S
N3709      O3719   1.262       .  A
N3709      O3720   1.262       .  A
N3711      O3717   1.263       .  A
N3711      O3718   1.261       .  A
C3721      C3722   1.401       .  A
C3721      C3726   1.406       .  A
C3722      C3723   1.412       .  A
C3722      C3727   1.496       .  S
C3723      C3724   1.403       .  A
C3724      C3725   1.405       .  A
C3725      C3726   1.425       .  A
C3727      C3732   1.417       .  A
N3728      O3743   1.262       .  A
N3728      O3744   1.262       .  A
N3730      O3741   1.261       .  A
N3730      O3742   1.258       .  A
C3732      C3733   1.400       .  A
C3732      N3737   1.428       .  S
C3733      C3734   1.397       .  A
C3733      H3738   1.085       .  S
C3735      C3736   1.407       .  A
C3735      N3739   1.429   1_455  S
C3736      H3740   1.083   1_455  S
N3737      O3747   1.262       .  A
N3737      O3748   1.262       .  A
N3739      O3745   1.261       .  A
N3739      O3746   1.262       .  A
C3749      C3754   1.395   1_554  A
C3749      H3759   1.083   1_554  S
C3750      C3751   1.421       .  A
C3750      C3755   1.481       .  S
C3751      C3752   1.404       .  A
C3751      N3756   1.440       .  S
C3752      C3753   1.396       .  A
C3752      H3757   1.084       .  S
C3754      N3758   1.428       .  S
C3755      C3764   1.399       .  A
N3756      O3771   1.263       .  A
N3756      O3772   1.262       .  A
N3758      O3769   1.262       .  A
N3758      O3770   1.262       .  A
C3760      C3761   1.395       .  A
C3760      N3765   1.428       .  S
C3761      H3766   1.082       .  S
C3762      C3763   1.420       .  A
C3763      C3764   1.397       .  A
C3763      N3767   1.430       .  S
C3764      H3768   1.084       .  S
N3765      O3775   1.261       .  A
N3765      O3776   1.262       .  A
N3767      O3773   1.263       .  A
N3767      O3774   1.261       .  A
C3777      C3778   1.400       .  A
C3777      C3782   1.405       .  A
C3777      H3787   1.084       .  S
C3778      C3779   1.407       .  A
C3778      C3783   1.486       .  S
C3779      C3780   1.407       .  A
C3779      N3784   1.430       .  S
C3780      C3781   1.409       .  A
C3780      H3785   1.084       .  S
C3781      C3782   1.417       .  A
C3782      N3786   1.440       .  S
C3783      C3788   1.406       .  A
C3783      C3792   1.404       .  A
N3784      O3799   1.261       .  A
N3784      O3800   1.263       .  A
N3786      O3797   1.263       .  A
N3786      O3798   1.260       .  A
C3788      C3789   1.394       .  A
C3788      N3793   1.428       .  S
C3789      C3790   1.402       .  A
C3789      H3794   1.082       .  S
C3790      C3791   1.421       .  A
C3791      C3792   1.407       .  A
N3793      O3803   1.261       .  A
N3793      O3804   1.262       .  A
N3795      O3801   1.262       .  A
N3795      O3802   1.261       .  A
C3805      C3810   1.410   1_455  A
C3805      H3815   1.083   1_455  S
C3806      C3807   1.414       .  A
C3806      C3811   1.493       .  S
C3807      C3808   1.395       .  A
C3807      N3812   1.428       .  S
C3808      C3809   1.394       .  A
C3808      H3813   1.077       .  S
C3810      N3814   1.430       .  S
C3811      C3816   1.411       .  A
N3812      O3827   1.262       .  A
N3812      O3828   1.262       .  A
N3814      O3825   1.262       .  A
N3814      O3826   1.261       .  A
C3816      C3817   1.399       .  A
C3816      N3821   1.427       .  S
C3817      C3818   1.401       .  A
C3817      H3822   1.081       .  S
C3819      C3820   1.406       .  A
C3819      N3823   1.431       .  S
C3820      H3824   1.083       .  S
N3821      O3832   1.262       .  A
N3823      O3829   1.262       .  A
N3823      O3830   1.262       .  A
C3833      C3838   1.409       .  A
C3833      H3843   1.083       .  S
C3834      C3835   1.418       .  A
C3834      C3839   1.498       .  S
C3835      C3836   1.398       .  A
C3835      N3840   1.429       .  S
C3836      C3837   1.391       .  A
C3836      H3841   1.082       .  S
C3838      N3842   1.429       .  S
C3839      C3844   1.415       .  A
C3839      C3848   1.407       .  A
N3840      O3855   1.262       .  A
N3840      O3856   1.262       .  A
N3842      O3853   1.261       .  A
N3842      O3854   1.260       .  A
C3844      C3845   1.400       .  A
C3845      C3846   1.398       .  A
C3846      C3847   1.418       .  A
C3847      C3848   1.403       .  A
C3847      N3851   1.433       .  S
C3848      H3852   1.084       .  S
N3849      O3859   1.262   1_455  A
N3849      O3860   1.261       .  A
N3851      O3857   1.260       .  A
N3851      O3858   1.260       .  A
C3861      C3862   1.406       .  A
C3861      C3866   1.407       .  A
C3861      H3871   1.082       .  S
C3862      C3867   1.498       .  S
C3863      C3864   1.399       .  A
C3863      N3868   1.429       .  S
C3864      H3869   1.076       .  S
C3865      C3866   1.418       .  A
C3866      N3870   1.428       .  S
C3867      C3872   1.419       .  A
N3868      O3883   1.262   1_545  A
N3868      O3884   1.262       .  A
N3870      O3881   1.260       .  A
N3870      O3882   1.261       .  A
C3872      C3873   1.398       .  A
C3872      N3877   1.428       .  S
C3873      C3874   1.394       .  A
C3873      H3878   1.083       .  S
C3875      C3876   1.404   1_565  A
C3875      N3879   1.430       .  S
C3876      H3880   1.080   1_545  S
N3877      O3887   1.262       .  A
N3877      O3888   1.262       .  A
N3879      O3885   1.262       .  A
N3879      O3886   1.261       .  A
C3889      C3890   1.399       .  A
C3889      C3894   1.409       .  A
C3889      H3899   1.084       .  S
C3890      C3891   1.401       .  A
C3890      C3895   1.475       .  S
C3891      C3892   1.387       .  A
C3891      N3896   1.428       .  S
C3892      C3893   1.396       .  A
C3892      H3897   1.071       .  S
C3893      C3894   1.432       .  A
C3894      N3898   1.444       .  S
C3895      C3904   1.390       .  A
N3896      O3911   1.262       .  A
N3896      O3912   1.262       .  A
N3898      O3909   1.264       .  A
N3898      O3910   1.259       .  A
C3900      C3901   1.399       .  A
C3900      N3905   1.435   1_545  S
C3901      H3906   1.072   1_545  S
C3902      C3903   1.440       .  A
C3903      C3904   1.403       .  A
C3903      N3907   1.429       .  S
C3904      H3908   1.085       .  S
N3905      O3915   1.263       .  A
N3905      O3916   1.262       .  A
N3907      O3913   1.261       .  A
N3907      O3914   1.263       .  A
C3917      C3918   1.394       .  A
C3917      C3922   1.399       .  A
C3917      H3927   1.084       .  S
C3918      C3919   1.410       .  A
C3918      C3923   1.483       .  S
C3919      C3920   1.399       .  A
C3919      N3924   1.429       .  S
C3920      C3921   1.407       .  A
C3920      H3925   1.081       .  S
C3921      C3922   1.427       .  A
C3922      N3926   1.432       .  S
C3923      C3928   1.409       .  A
C3923      C3932   1.407       .  A
N3924      O3939   1.262       .  A
N3924      O3940   1.262       .  A
N3926      O3937   1.264       .  A
N3926      O3938   1.254       .  A
C3928      C3929   1.405       .  A
C3928      N3933   1.430       .  S
C3929      C3930   1.404       .  A
C3929      H3934   1.083       .  S
C3930      C3931   1.403       .  A
C3931      C3932   1.398       .  A
C3931      N3935   1.430       .  S
C3932      H3936   1.084       .  S
N3933      O3943   1.262       .  A
N3933      O3944   1.261       .  A
N3935      O3941   1.262       .  A
N3935      O3942   1.261       .  A
C3945      C3946   1.401       .  A
C3945      C3950   1.404       .  A
C3945      H3955   1.080       .  S
C3946      C3947   1.417       .  A
C3946      C3951   1.506       .  S
C3947      C3948   1.397       .  A
C3947      N3952   1.421       .  S
C3948      C3949   1.395       .  A
C3948      H3953   1.082       .  S
C3949      C3950   1.425       .  A
C3950      N3954   1.430       .  S
C3951      C3956   1.422       .  A
C3951      C3960   1.407       .  A
N3952      O3967   1.262       .  A
N3952      O3968   1.261       .  A
N3954      O3965   1.262       .  A
N3954      O3966   1.260       .  A
C3956      C3957   1.403       .  A
C3956      N3961   1.429       .  S
C3957      C3958   1.397       .  A
C3957      H3962   1.084       .  S
C3958      C3959   1.411       .  A
C3959      C3960   1.403       .  A
C3959      N3963   1.429       .  S
C3960      H3964   1.082       .  S
N3961      O3971   1.262       .  A
N3961      O3972   1.261       .  A
N3963      O3969   1.262       .  A
N3963      O3970   1.262       .  A
C3973      C3974   1.404       .  A
C3973      C3978   1.398       .  A
C3973      H3983   1.083       .  S
C3974      C3975   1.417       .  A
C3974      C3979   1.491       .  S
C3975      C3976   1.400       .  A
C3975      N3980   1.428       .  S
C3976      C3977   1.394       .  A
C3976      H3981   1.077       .  S
C3977      C3978   1.400       .  A
C3978      N3982   1.419       .  S
C3979      C3984   1.412       .  A
C3979      C3988   1.400       .  A
N3980      O3995   1.262       .  A
N3980      O3996   1.262       .  A
N3982      O3993   1.262       .  A
N3982      O3994   1.260       .  A
C3984      C3985   1.396       .  A
C3984      N3989   1.428       .  S
C3985      C3986   1.399       .  A
C3985      H3990   1.083       .  S
C3986      C3987   1.430       .  A
C3987      C3988   1.410       .  A
C3987      N3991   1.438       .  S
C3988      H3992   1.084       .  S
N3989      O3999   1.262       .  A
N3989      O4000   1.261       .  A
N3991      O3997   1.256       .  A
N3991      O3998   1.263       .  A
