geometry optimzed in LAMMPS
_audit_creation_date              2020-12-01 
_audit_creation_method            'lammps2cif' 
_symmetry_space_group_name_H-M    'P1' 
_symmetry_Int_Tables_number       1 
_symmetry_cell_setting            triclinic 
loop_ 
_symmetry_equiv_pos_as_xyz 
  x,y,z 
_cell_length_a                    26.68776073 
_cell_length_b                    25.630001021447306 
_cell_length_c                    26.67800786557797 
_cell_angle_alpha                 89.32319458099677 
_cell_angle_beta                  88.8015710107897 
_cell_angle_gamma                 89.1787346247509 
loop_ 
_atom_site_label 
_atom_site_type_symbol 
_atom_site_fract_x 
_atom_site_fract_y 
_atom_site_fract_z 
_atom_site_charge 
O1          O  0.46276866  0.53238878  0.40588523    -0.78300
O2          O  0.55000614  0.52339528  0.61402251    -0.78400
O3          O  0.43292810  0.58025807  0.56702480    -0.78400
O4          O  0.62746583  0.54154158  0.47282923    -0.78300
O5          O  0.44820418  0.52051311  0.62505500    -0.78400
O6          O  0.55600700  0.55858733  0.43526093    -0.78400
O7          O  0.56286919  0.57502925  0.54784005    -0.78300
O8          O  0.44319682  0.58536714  0.46631313    -0.78400
C9          C  0.44475656  0.57589166  0.42029499     1.11300
C10         C  0.56543403  0.56622011  0.59456260     1.11200
C11         C  0.43245144  0.56577134  0.61232153     1.11400
C12         C  0.60332845  0.56700938  0.43990501     1.11200
O13         O  0.54422620  0.46632264  0.38696409    -0.78300
O14         O  0.44748350  0.42018690  0.57536302    -0.78400
O15         O  0.40198608  0.47836136  0.45955883    -0.78400
O16         O  0.60792872  0.47326520  0.55381990    -0.78300
O17         O  0.54749966  0.41906778  0.56726990    -0.78400
O18         O  0.47025395  0.42926052  0.44971929    -0.78400
O19         O  0.58110027  0.44822686  0.45860435    -0.78300
O20         O  0.38797542  0.47850318  0.56154623    -0.78400
Co21       Co  0.51310451  0.49136586  0.44732481     1.51500
Co22       Co  0.49841091  0.47173730  0.59066267     1.51700
Co23       Co  0.42157476  0.52981057  0.51356970     1.51600
Co24       Co  0.56712330  0.51451073  0.50289042     1.51500
O25         O  0.49362783  0.50246417  0.52007672    -1.40300
C26         C  0.57638265  0.44002408  0.41118650     1.11300
C27         C  0.40191349  0.43325470  0.57601950     1.11400
C28         C  0.42358545  0.43618804  0.44476617     1.11300
C29         C  0.59290544  0.42964070  0.57075497     1.11300
C30         C  0.64842908  0.66240204  0.68278143     0.88300
C31         C  0.68607636  0.69668446  0.65317542    -0.52000
C32         C  0.71557873  0.72555377  0.68333335     0.11200
C33         C  0.70456867  0.71800003  0.73950772     0.22200
C34         C  0.68105243  0.62955528  0.71861805    -0.52700
C35         C  0.71066309  0.65906851  0.74796101     0.11300
C36         C  0.61863668  0.70026123  0.71661286    -0.52200
C37         C  0.64819870  0.72926418  0.74629751     0.11900
H38         H  0.69010466  0.69675773  0.61257713     0.16400
H39         H  0.72861600  0.74169515  0.76375903     0.02100
H40         H  0.68224509  0.58716732  0.71910020     0.16700
H41         H  0.57799813  0.70364771  0.71720240     0.16500
C42         C  0.66454678  0.32123313  0.66029536     0.88300
C43         C  0.62570692  0.29023270  0.69214512    -0.52000
C44         C  0.64709439  0.25458560  0.72431653     0.11200
C45         C  0.70460704  0.25313655  0.72121589     0.22200
C46         C  0.69920291  0.34534652  0.69866247    -0.52700
C47         C  0.72008429  0.30941661  0.73024328     0.11300
C48         C  0.69717327  0.27970080  0.63367474    -0.52200
C49         C  0.71825101  0.24433736  0.66582199     0.11900
H50         H  0.58550109  0.29681827  0.69029840     0.16400
H51         H  0.72226496  0.22434911  0.74716482     0.02100
H52         H  0.70768600  0.38665297  0.69973692     0.16700
H53         H  0.70498529  0.27989058  0.59354125     0.16500
C54         C  0.35377308  0.66548627  0.70617181     0.88300
C55         C  0.38357250  0.70436477  0.73674344    -0.52000
C56         C  0.35398446  0.73762800  0.76436406     0.11200
C57         C  0.29736833  0.72895820  0.75884510     0.22200
C58         C  0.31913743  0.63764778  0.74446487    -0.52700
C59         C  0.28926989  0.67109310  0.77166765     0.11300
C60         C  0.31804724  0.69936410  0.67438262    -0.52200
C61         C  0.28837974  0.73236124  0.70228400     0.11900
H62         H  0.42425540  0.70558585  0.73642141     0.16400
H63         H  0.27313234  0.75597943  0.78125587     0.02100
H64         H  0.31638104  0.59548033  0.74760698     0.16700
H65         H  0.31512744  0.69607248  0.63398748     0.16500
C66         C  0.31586719  0.33287015  0.66013705     0.88300
C67         C  0.28365825  0.29119730  0.63587915    -0.52000
C68         C  0.26005274  0.25942723  0.67011702     0.11200
C69         C  0.27101573  0.27187283  0.72495263     0.22200
C70         C  0.27996303  0.36193190  0.69636696    -0.52700
C71         C  0.25662886  0.32966671  0.73022591     0.11300
C72         C  0.35207840  0.30237737  0.69418358    -0.52200
C73         C  0.32836994  0.27061354  0.72824334     0.11900
H74         H  0.27908499  0.28788908  0.59568117     0.16400
H75         H  0.25172114  0.24595018  0.75269783     0.02100
H76         H  0.27363088  0.40389628  0.69534419     0.16700
H77         H  0.39254141  0.30647295  0.69230548     0.16500
N78         N  0.00160344  0.89801711  0.63572776    -0.34800
N79         N  0.92227990  0.97765775  0.63515839    -0.55400
N80         N  0.99746664  0.05954785  0.63074734    -0.34800
N81         N  0.07659306  0.98042489  0.63671541    -0.55400
C82         C  0.96124751  0.86772322  0.64562638     0.28800
C83         C  0.04319991  0.86924556  0.64614346     0.28800
C84         C  0.95546319  0.08919030  0.63681263     0.28800
C85         C  0.03717102  0.09048698  0.63873703     0.28800
C86         C  0.89336668  0.93485546  0.63305621     0.37400
C87         C  0.89134145  0.01941694  0.62907169     0.37400
C88         C  0.10761141  0.93846959  0.63253205     0.37400
C89         C  0.10539845  0.02309652  0.63027184     0.37400
C90         C  0.97751200  0.81858082  0.66108101    -0.20100
C91         C  0.02910454  0.81955353  0.66147083    -0.20100
C92         C  0.96867899  0.13994012  0.64765539    -0.20100
C93         C  0.02014661  0.14072396  0.64900559    -0.20100
C94         C  0.84371995  0.94962258  0.62627105    -0.21200
C95         C  0.84246043  0.00303063  0.62368291    -0.21200
C96         C  0.15641209  0.95465254  0.62352824    -0.21200
C97         C  0.15500325  0.00816591  0.62214701    -0.21200
C98         C  0.91023106  0.88277564  0.64032077    -0.16500
C99         C  0.09351531  0.88604909  0.64101587    -0.16500
C100        C  0.08833084  0.07532217  0.63493389    -0.16500
C101        C  0.90560452  0.07223288  0.63165624    -0.16500
H102        H  0.95458736  0.78549836  0.67141890     0.16400
H103        H  0.05344241  0.78730096  0.67204617     0.16400
H104        H  0.94383809  0.17306350  0.65402085     0.16400
H105        H  0.04245743  0.17460446  0.65642344     0.16400
H106        H  0.81152748  0.92461164  0.62406905     0.14700
H107        H  0.80913193  0.02704746  0.61917708     0.14700
H108        H  0.18975754  0.93045720  0.61919929     0.14700
H109        H  0.18698423  0.03321289  0.61645876     0.14700
H110        H  0.00102413  0.93449826  0.61878291     0.28000
H111        H  0.99899691  0.02188501  0.61731108     0.27900
C112        C  0.67401979  0.66905761  0.34010729     0.88300
C113        C  0.63901242  0.70491505  0.30921356    -0.52000
C114        C  0.66385320  0.73493178  0.27414488     0.11200
C115        C  0.72100209  0.72639215  0.27333013     0.22200
C116        C  0.70416979  0.63730127  0.30079288    -0.52700
C117        C  0.72877981  0.66753048  0.26596157     0.11300
C118        C  0.71248236  0.70593442  0.36254832    -0.52200
C119        C  0.73710922  0.73574172  0.32735658     0.11900
H120        H  0.59853892  0.70615866  0.31438731     0.16400
H121        H  0.74124701  0.75073464  0.24493256     0.02100
H122        H  0.70645934  0.59494550  0.30100435     0.16700
H123        H  0.72026222  0.70746717  0.40230793     0.16500
C124        C  0.37317719  0.68186132  0.32645273     0.88300
C125        C  0.33003265  0.71331178  0.35195217    -0.52000
C126        C  0.30395534  0.74466861  0.31926807     0.11200
C127        C  0.32327841  0.74167928  0.26470112     0.22200
C128        C  0.34813887  0.65223826  0.28445627    -0.52700
C129        C  0.32202826  0.68349521  0.25233129     0.11300
C130        C  0.40565791  0.72295031  0.29936178    -0.52200
C131        C  0.37935196  0.75410610  0.26700742     0.11900
H132        H  0.32069748  0.71054239  0.39169996     0.16400
H133        H  0.30202830  0.76689014  0.23814934     0.02100
H134        H  0.34989489  0.61001902  0.28108781     0.16700
H135        H  0.44574524  0.72636910  0.30449348     0.16500
N136        N  0.06043548  0.55920530  0.98405557    -0.34800
N137        N  0.97850365  0.57045298  0.06450627    -0.55400
N138        N  0.91232838  0.61017601  0.99148572    -0.34800
N139        N  0.99222988  0.60455071  0.91455168    -0.55400
C140        C  0.08045481  0.55415314  0.02980890     0.28800
C141        C  0.09163820  0.58908344  0.95607036     0.28800
C142        C  0.88064808  0.60910283  0.03204214     0.28800
C143        C  0.88415343  0.61243472  0.94986205     0.28800
C144        C  0.01806404  0.55425042  0.09127505     0.37400
C145        C  0.94315757  0.58742859  0.09720483     0.37400
C146        C  0.03467244  0.60497892  0.88591203     0.37400
C147        C  0.95319077  0.60985636  0.88351830     0.37400
C148        C  0.12499805  0.58071346  0.03171304    -0.20100
C149        C  0.13285977  0.60196079  0.98424541    -0.20100
C150        C  0.83168981  0.61314557  0.01606855    -0.20100
C151        C  0.83380848  0.61476997  0.96446153    -0.20100
C152        C  0.00809151  0.55985850  0.14191954    -0.21200
C153        C  0.96025831  0.58126125  0.14581708    -0.21200
C154        C  0.02278594  0.61103002  0.83590835    -0.21200
C155        C  0.97106935  0.61336262  0.83428118    -0.21200
C156        C  0.05764982  0.52573466  0.06903343    -0.16500
C157        C  0.08344548  0.60343569  0.90572574    -0.16500
C158        C  0.90194494  0.61247725  0.89907921    -0.16500
C159        C  0.89468763  0.60380160  0.08300992    -0.16500
H160        H  0.14938786  0.58352267  0.06344136     0.16400
H161        H  0.16448392  0.62530272  0.97224416     0.16400
H162        H  0.79782652  0.61348753  0.03911057     0.16400
H163        H  0.80163190  0.61713979  0.94047978     0.16400
H164        H  0.03179580  0.54783513  0.17249393     0.14700
H165        H  0.93986868  0.58961338  0.18034695     0.14700
H166        H  0.04855670  0.61350533  0.80412633     0.14700
H167        H  0.94920786  0.61813586  0.80077774     0.14700
H168        H  0.02797184  0.54091992  0.97261924     0.28000
H169        H  0.95105568  0.61252114  0.99230106     0.27900
C170        C  0.34829944  0.33825818  0.35098870     0.88300
C171        C  0.38316075  0.30702092  0.31508417    -0.52000
C172        C  0.35809006  0.28089149  0.27899869     0.11200
C173        C  0.30077885  0.28809666  0.28236447     0.22200
C174        C  0.31714838  0.37364443  0.31649910    -0.52700
C175        C  0.29232013  0.34732874  0.28076947     0.13300
C176        C  0.31082183  0.29824302  0.37248196    -0.52200
C177        C  0.28589720  0.27212941  0.33633805     0.11900
H178        H  0.42375410  0.30660842  0.31732012     0.16400
H179        H  0.28036645  0.26704184  0.25304332     0.02100
H180        H  0.31519035  0.41586381  0.31977858     0.16700
H181        H  0.30378652  0.29211985  0.41235193     0.16500
N182        N  0.93559566  0.00098517  0.35180814    -0.34800
N183        N  0.00964984  0.08266711  0.35880932    -0.55400
N184        N  0.08889620  0.00250883  0.35785398    -0.34800
N185        N  0.01480991  0.92066089  0.35563633    -0.55400
C186        C  0.90546965  0.04286038  0.36150007     0.28800
C187        C  0.90818622  0.95764424  0.36068296     0.28800
C188        C  0.11592337  0.04526120  0.36818718     0.28800
C189        C  0.11860923  0.96000080  0.36588417     0.28800
C190        C  0.96864063  0.11291459  0.35011370     0.37400
C191        C  0.04997701  0.11379571  0.35318612     0.37400
C192        C  0.97523219  0.89010633  0.34627936     0.37400
C193        C  0.05659713  0.89093682  0.34815620     0.37400
C194        C  0.85825862  0.02587824  0.37627563    -0.20100
C195        C  0.85997315  0.97222159  0.37581647    -0.20100
C196        C  0.16343685  0.02967077  0.38302611    -0.20100
C197        C  0.16512465  0.97600390  0.38155615    -0.20100
C198        C  0.98292631  0.16374076  0.33969927    -0.21200
C199        C  0.03439856  0.16431173  0.34165304    -0.21200
C200        C  0.99191180  0.84042396  0.33352125    -0.21200
C201        C  0.04342591  0.84096326  0.33467438    -0.21200
C202        C  0.91847167  0.09589330  0.35454623    -0.16500
C203        C  0.92432927  0.90550693  0.35229042    -0.16500
C204        C  0.10623829  0.90758258  0.35577431    -0.16500
C205        C  0.10039086  0.09788505  0.36067275    -0.16500
H206        H  0.82577560  0.04968036  0.38609210     0.16400
H207        H  0.82899992  0.94683636  0.38513522     0.16400
H208        H  0.19412913  0.05442567  0.39295060     0.16400
H209        H  0.19731614  0.95160469  0.39017971     0.16400
H210        H  0.95878051  0.19701515  0.33190333     0.14700
H211        H  0.05765868  0.19814339  0.33557123     0.14700
H212        H  0.96932244  0.80715586  0.32467756     0.14700
H213        H  0.06829591  0.80819862  0.32687009     0.14700
H214        H  0.97079824  0.00195949  0.33446854     0.28000
H215        H  0.05463877  0.00270243  0.34027828     0.27900
N216        N  0.43176781  0.02414437  0.92625374    -0.34800
N217        N  0.43358381  0.10727589  0.00149216    -0.55400
N218        N  0.44574276  0.02953417  0.08063687    -0.34800
N219        N  0.43922529  0.94653567  0.00588466    -0.55400
C220        C  0.41800347  0.06582384  0.89781774     0.28800
C221        C  0.42091271  0.98057582  0.90039641     0.28800
C222        C  0.43604246  0.07244407  0.10872449     0.28800
C223        C  0.43943093  0.98726307  0.11096623     0.28800
C224        C  0.43269574  0.13720140  0.95937653     0.37400
C225        C  0.43916147  0.13999372  0.04046183     0.37400
C226        C  0.44139783  0.91411931  0.96619090     0.37400
C227        C  0.44891198  0.91693881  0.04691205     0.37400
C228        C  0.39981796  0.04843566  0.85262993    -0.20100
C229        C  0.40163037  0.99484857  0.85429308    -0.20100
C230        C  0.42542707  0.05711754  0.15781956    -0.20100
C231        C  0.42750617  0.00359252  0.15921058    -0.20100
C232        C  0.43816661  0.18922355  0.97168545    -0.21200
C233        C  0.44220018  0.19097576  0.02295183    -0.21200
C234        C  0.45282934  0.86375049  0.98206735    -0.21200
C235        C  0.45758200  0.86552528  0.03314971    -0.21200
C236        C  0.42185288  0.11914712  0.91079448    -0.16500
C237        C  0.42851756  0.92826882  0.91669190    -0.16500
C238        C  0.44482552  0.93430297  0.09694254    -0.16500
C239        C  0.43642748  0.12510040  0.09176007    -0.16500
H240        H  0.38620974  0.07185649  0.82162085     0.16400
H241        H  0.38976605  0.96933749  0.82489144     0.16400
H242        H  0.41649210  0.08184136  0.18946177     0.16400
H243        H  0.42059226  0.97946045  0.19211981     0.16400
H244        H  0.43780554  0.22262953  0.94648861     0.14700
H245        H  0.44561757  0.22591441  0.04494413     0.14700
H246        H  0.45639460  0.82914124  0.95934078     0.14700
H247        H  0.46551350  0.83251179  0.05752714     0.14700
H248        H  0.45105761  0.02561714  0.95954987     0.28000
H249        H  0.45949061  0.02903053  0.04397660     0.27900
N250        N  0.96558989  0.42688851  0.05239817    -0.34800
N251        N  0.90299683  0.37212060  0.98644218    -0.55400
N252        N  0.98692828  0.36275326  0.91515517    -0.34800
N253        N  0.05133519  0.41276213  0.98452604    -0.55400
C254        C  0.93078313  0.40964197  0.08607581     0.28800
C255        C  0.00386412  0.44545594  0.07867958     0.28800
C256        C  0.94842004  0.35477967  0.88393121     0.28800
C257        C  0.02941983  0.36529083  0.88656127     0.28800
C258        C  0.87036054  0.37535570  0.02556637     0.37400
C259        C  0.87685701  0.35712593  0.94669390     0.37400
C260        C  0.07305024  0.44330272  0.01841821     0.37400
C261        C  0.08717349  0.40017523  0.95021271     0.37400
C262        C  0.94751006  0.41766563  0.13430374    -0.20100
C263        C  0.99383090  0.44045876  0.12949796    -0.20100
C264        C  0.96705021  0.35039936  0.83515748    -0.20100
C265        C  0.01805454  0.35650834  0.83687896    -0.20100
C266        C  0.82297017  0.36123620  0.01098975    -0.21200
C267        C  0.82693938  0.35022684  0.96076724    -0.21200
C268        C  0.12355294  0.44852569  0.00700408    -0.21200
C269        C  0.13272676  0.42060689  0.96399383    -0.21200
C270        C  0.88347696  0.38948757  0.07437100    -0.16500
C271        C  0.04622395  0.46955832  0.05698415    -0.16500
C272        C  0.07789143  0.37741402  0.90339545    -0.16500
C273        C  0.89692520  0.35122189  0.89769632    -0.16500
H274        H  0.92822856  0.40838914  0.16930255     0.16400
H275        H  0.01766062  0.45158421  0.15976813     0.16400
H276        H  0.94604708  0.34387323  0.80158400     0.16400
H277        H  0.04358708  0.35627313  0.80481705     0.16400
H278        H  0.78906310  0.35967340  0.03390355     0.14700
H279        H  0.79654273  0.33842463  0.93738272     0.14700
H280        H  0.15067599  0.47062304  0.02720870     0.14700
H281        H  0.16818044  0.41831194  0.94363587     0.14700
H282        H  0.96196908  0.43180968  0.01390842     0.28000
H283        H  0.98496763  0.36342668  0.95392559     0.27900
C284        C  0.66082166  0.33273000  0.32976136     0.88300
C285        C  0.69847210  0.29593413  0.35632742    -0.52000
C286        C  0.72536000  0.26463792  0.32388268     0.11200
C287        C  0.71190723  0.27274122  0.26861318     0.22200
C288        C  0.69265883  0.36282907  0.29072118    -0.52700
C289        C  0.71932142  0.33119044  0.25890280     0.11300
C290        C  0.62806568  0.29669598  0.29883331    -0.52200
C291        C  0.65495183  0.26541224  0.26673512     0.11900
H292        H  0.70415246  0.29563882  0.39652110     0.16400
H293        H  0.73375244  0.24738801  0.24232961     0.02100
H294        H  0.69415904  0.40514601  0.28861172     0.16700
H295        H  0.58738213  0.29672791  0.30134571     0.16500
N296        N  0.56809590  0.08287126  0.00398128    -0.34800
N297        N  0.57505129  0.00216954  0.08336298    -0.55400
N298        N  0.57390982  0.92052036  0.00919302    -0.34800
N299        N  0.57187775  0.00112019  0.92961881    -0.55400
C300        C  0.57886263  0.11266941  0.04388602     0.28800
C301        C  0.57689357  0.11193531  0.96187296     0.28800
C302        C  0.58633963  0.89177949  0.05023971     0.28800
C303        C  0.58467096  0.89119765  0.96839110     0.28800
C304        C  0.56897818  0.04506806  0.11205458     0.37400
C305        C  0.57194768  0.96029202  0.11472284     0.37400
C306        C  0.56402402  0.04265701  0.89876876     0.37400
C307        C  0.56657007  0.95796719  0.90162656     0.37400
C308        C  0.59281338  0.16189419  0.02694364    -0.20100
C309        C  0.59159182  0.16140855  0.97536037    -0.20100
C310        C  0.60357850  0.84296259  0.03530263    -0.20100
C311        C  0.60257606  0.84259730  0.98378139    -0.20100
C312        C  0.56143061  0.03025982  0.16180215    -0.21200
C313        C  0.56328972  0.97667487  0.16346719    -0.21200
C314        C  0.55331501  0.02574963  0.85107641    -0.21200
C315        C  0.55487650  0.97218512  0.85288615    -0.21200
C316        C  0.57580788  0.09716030  0.09516076    -0.16500
C317        C  0.57139125  0.09534392  0.91168906    -0.16500
C318        C  0.57756801  0.90635811  0.91774545    -0.16500
C319        C  0.58187397  0.90796163  0.10079966    -0.16500
H320        H  0.60320515  0.19478220  0.04938155     0.16400
H321        H  0.60088713  0.19377234  0.95061914     0.16400
H322        H  0.61596058  0.81094058  0.05900413     0.16400
H323        H  0.61397957  0.81016720  0.96034689     0.16400
H324        H  0.55628457  0.05550467  0.19378615     0.14700
H325        H  0.55983124  0.95256058  0.19690206     0.14700
H326        H  0.54614852  0.04954725  0.81814913     0.14700
H327        H  0.54922818  0.94660883  0.82157111     0.14700
H328        H  0.55214199  0.04621399  0.00571756     0.28000
H329        H  0.55534981  0.95640986  0.00899272     0.27900
C330        C  0.58533528  0.13622884  0.13297232    -0.16700
C331        C  0.59723882  0.16696738  0.16457415     0.07300
C332        C  0.61474416  0.20159629  0.20127873     0.09200
C333        C  0.63191796  0.23058766  0.23181654    -0.17600
C334        C  0.75256669  0.35046673  0.21989460    -0.16700
C335        C  0.78161765  0.36294913  0.18684859     0.07300
C336        C  0.81660227  0.37424669  0.14796130     0.09200
C337        C  0.84692056  0.38192584  0.11464285    -0.17600
C338        C  0.76579788  0.22948118  0.33863571    -0.16700
C339        C  0.80102619  0.20006607  0.34570609     0.07300
C340        C  0.84277738  0.16524235  0.35035242     0.09200
C341        C  0.87782197  0.13467850  0.35274993    -0.17600
C342        C  0.26241062  0.37422348  0.24404650    -0.16700
C343        C  0.24206104  0.40428851  0.21575210     0.07300
C344        C  0.22655757  0.44846478  0.18789302     0.09200
C345        C  0.22256041  0.49219180  0.17139499    -0.17600
C346        C  0.38285979  0.25140537  0.23906583    -0.16700
C347        C  0.40021544  0.22635493  0.20431182     0.07300
C348        C  0.41711346  0.19515848  0.16325283     0.09200
C349        C  0.42815559  0.16557165  0.12942614    -0.17600
C350        C  0.24634278  0.23528713  0.34731425    -0.16700
C351        C  0.21232877  0.20495516  0.35331435     0.07300
C352        C  0.17235180  0.16912351  0.35774751     0.09200
C353        C  0.13896073  0.13762805  0.35990559    -0.17600
C354        C  0.22946638  0.54607980  0.16363531    -0.16700
C355        C  0.24409352  0.58987492  0.16854067     0.07300
C356        C  0.26854995  0.63352665  0.18757111     0.09200
C357        C  0.29259658  0.66167683  0.21335546    -0.17600
C358        C  0.44076338  0.89490851  0.13637459    -0.16700
C359        C  0.43265508  0.86279330  0.16889486     0.07300
C360        C  0.41825960  0.82547778  0.20570847     0.09200
C361        C  0.40236927  0.79329891  0.23513080    -0.17600
C362        C  0.14713299  0.86912793  0.35255287    -0.16700
C363        C  0.18234719  0.83890281  0.34835603     0.07300
C364        C  0.22457789  0.80492024  0.34159690     0.09200
C365        C  0.26083933  0.77693388  0.33355221    -0.17600
C366        C  0.85683772  0.61246082  0.12226660    -0.16700
C367        C  0.82588846  0.62083619  0.15513393     0.07300
C368        C  0.79053650  0.63315793  0.19386046     0.09200
C369        C  0.76151824  0.64668166  0.22683703    -0.17600
C370        C  0.63915478  0.77110732  0.23979764    -0.16700
C371        C  0.62187895  0.80178463  0.20946907     0.07300
C372        C  0.60460096  0.83822223  0.17263263     0.09200
C373        C  0.59251303  0.86962575  0.14045958    -0.17600
C374        C  0.88603022  0.86569601  0.35049130    -0.16700
C375        C  0.85240941  0.83466772  0.34847735     0.07300
C376        C  0.81185319  0.79989005  0.34465352     0.09200
C377        C  0.77727357  0.77072799  0.33888190    -0.17600
C378        C  0.12581471  0.11574842  0.63785077    -0.16700
C379        C  0.15727599  0.14879090  0.64181756     0.07300
C380        C  0.19412767  0.18710227  0.64852605     0.09200
C381        C  0.22496122  0.21981708  0.65662075    -0.17600
C382        C  0.35454312  0.24110472  0.76637307    -0.16700
C383        C  0.37432338  0.21645172  0.79959269     0.07300
C384        C  0.39481384  0.18615312  0.83910423     0.09200
C385        C  0.40922860  0.15761398  0.87236340    -0.17600
C386        C  0.11955779  0.37195440  0.86798002    -0.16700
C387        C  0.15285796  0.36670110  0.83713823     0.07300
C388        C  0.19026855  0.35819624  0.79986306     0.09200
C389        C  0.22107946  0.34758002  0.76779605    -0.17600
C390        C  0.24741437  0.65382763  0.80267946    -0.16700
C391        C  0.20975226  0.64177261  0.82573832     0.07300
C392        C  0.16448569  0.62898558  0.85154922     0.09200
C393        C  0.12651437  0.61797624  0.87465189    -0.17600
C394        C  0.24781764  0.76330649  0.68176473    -0.16700
C395        C  0.21189738  0.78878554  0.66858198     0.07300
C396        C  0.16923341  0.81953370  0.65647239     0.09200
C397        C  0.13373147  0.84795952  0.64830708    -0.17600
C398        C  0.37423334  0.77779717  0.79570877    -0.16700
C399        C  0.39005662  0.81166674  0.82218134     0.07300
C400        C  0.40662108  0.85185898  0.85389098     0.09200
C401        C  0.41829089  0.88645620  0.88176486    -0.17600
C402        C  0.57817465  0.13340720  0.87071244    -0.16700
C403        C  0.58734806  0.16293512  0.83579688     0.07300
C404        C  0.60233229  0.19601580  0.79486146     0.09200
C405        C  0.61949174  0.22325730  0.76125187    -0.17600
C406        C  0.86586952  0.11144468  0.63216515    -0.16700
C407        C  0.83155845  0.14245448  0.63488985     0.07300
C408        C  0.79069125  0.17740259  0.64148026     0.09200
C409        C  0.75643120  0.20721387  0.65044681    -0.17600
C410        C  0.75751907  0.32211715  0.76570794    -0.16700
C411        C  0.79059413  0.32987026  0.79441117     0.07300
C412        C  0.82956041  0.33703137  0.82810204     0.09200
C413        C  0.86150959  0.34286388  0.85851921    -0.17600
C414        C  0.62824562  0.76684429  0.78161002    -0.16700
C415        C  0.61306176  0.79827990  0.81185832     0.07300
C416        C  0.59733797  0.83530166  0.84800980     0.09200
C417        C  0.58645554  0.86726847  0.87944305    -0.17600
C418        C  0.74975632  0.63787199  0.77909667    -0.16700
C419        C  0.78575449  0.62662980  0.80386266     0.07300
C420        C  0.82891762  0.61903190  0.83309346     0.09200
C421        C  0.86409590  0.61537993  0.86073922    -0.17600
C422        C  0.75719481  0.75666637  0.66542070    -0.16700
C423        C  0.79385507  0.78249447  0.65614811     0.07300
C424        C  0.83691427  0.81372946  0.64931719     0.09200
C425        C  0.87196686  0.84295521  0.64498651    -0.17600
C426        C  0.59125124  0.60270298  0.62540859    -0.11500
C427        C  0.61634767  0.63059718  0.65095496    -0.13000
C428        C  0.62446049  0.39358049  0.59832208    -0.11500
C429        C  0.64332984  0.36079689  0.62547794    -0.13000
C430        C  0.38546448  0.62933143  0.67601811    -0.11500
C431        C  0.40915457  0.59987707  0.64899878    -0.13000
C432        C  0.62791603  0.60561496  0.40784750    -0.11500
C433        C  0.64801352  0.63554796  0.37816151    -0.13000
C434        C  0.34174532  0.36794263  0.62419286    -0.11500
C435        C  0.36657844  0.39785678  0.59897978    -0.13000
C436        C  0.42305984  0.61370711  0.38579884    -0.11500
C437        C  0.40147545  0.64592506  0.35994398    -0.13000
C438        C  0.60621805  0.39987360  0.38634375    -0.11500
C439        C  0.63125984  0.36806326  0.36306156    -0.13000
C440        C  0.37462914  0.36880019  0.38917024    -0.11500
C441        C  0.39590806  0.39815507  0.41691917    -0.13000
loop_ 
_geom_bond_atom_site_label_1 
_geom_bond_atom_site_label_2 
_geom_bond_distance 
_geom_bond_site_symmetry_2 
_ccdc_geom_bond_type 
O1            C9   1.268       .  A
O1          Co21   2.031       .  S
O2           C10   1.278       .  A
O2          Co22   2.036       .  S
O3           C11   1.260       .  A
O3          Co23   1.967       .  S
O4           C12   1.269       .  A
O4          Co24   1.919       .  S
O5           C11   1.273       .  A
O5          Co22   2.032       .  S
O6           C12   1.293       .  A
O6          Co21   2.100       .  S
O7           C10   1.267       .  A
O7          Co24   1.972       .  S
O8            C9   1.254       .  A
O8          Co23   1.975       .  S
C9          C436   1.451       .  S
C10         C426   1.445       .  S
C11         C431   1.445       .  S
C12         C432   1.455       .  S
O13          C26   1.267       .  A
O13         Co21   1.910       .  S
O14          C27   1.257       .  A
O14         Co22   1.961       .  S
O15          C28   1.280       .  A
O15         Co23   2.046       .  S
O16          C29   1.268       .  A
O16         Co24   2.036       .  S
O17          C29   1.251       .  A
O17         Co22   1.965       .  S
O18          C28   1.265       .  A
O18         Co21   1.973       .  S
O19          C26   1.294       .  A
O19         Co24   2.105       .  S
O20          C27   1.271       .  A
O20         Co23   2.029       .  S
Co21         O25   2.021       .  S
Co22         O25   2.038       .  S
Co23         O25   2.047       .  S
Co24         O25   2.032       .  S
C26         C438   1.450       .  S
C27         C435   1.440       .  S
C28         C441   1.452       .  S
C29         C428   1.446       .  S
C30          C31   1.543       .  S
C30          C36   1.535       .  S
C30          C34   1.541       .  S
C30         C427   1.478       .  S
C31          H38   1.086       .  S
C31          C32   1.368       .  D
C32          C33   1.532       .  S
C32         C422   1.446       .  S
C33          C37   1.535       .  S
C33          C35   1.531       .  S
C33          H39   1.112       .  S
C34          H40   1.086       .  S
C34          C35   1.366       .  D
C35         C418   1.443       .  S
C36          H41   1.087       .  S
C36          C37   1.363       .  D
C37         C414   1.444       .  S
C42          C43   1.549       .  S
C42          C48   1.537       .  S
C42          C46   1.535       .  S
C42         C429   1.482       .  S
C43          H50   1.086       .  S
C43          C44   1.373       .  D
C44          C45   1.535       .  S
C44         C405   1.458       .  S
C45          C49   1.533       .  S
C45          C47   1.529       .  S
C45          H51   1.112       .  S
C46          H52   1.087       .  S
C46          C47   1.362       .  D
C47         C410   1.434       .  S
C48          H53   1.086       .  S
C48          C49   1.364       .  D
C49         C409   1.441       .  S
C54          C55   1.536       .  S
C54          C60   1.541       .  S
C54          C58   1.539       .  S
C54         C430   1.479       .  S
C55          H62   1.086       .  S
C55          C56   1.365       .  D
C56          C57   1.541       .  S
C56         C398   1.451       .  S
C57          C61   1.534       .  S
C57          C59   1.535       .  S
C57          H63   1.112       .  S
C58          H64   1.086       .  S
C58          C59   1.367       .  D
C59         C390   1.447       .  S
C60          H65   1.086       .  S
C60          C61   1.366       .  D
C61         C394   1.446       .  S
C66          C67   1.538       .  S
C66          C72   1.539       .  S
C66          C70   1.538       .  S
C66         C434   1.475       .  S
C67          H74   1.086       .  S
C67          C68   1.366       .  D
C68          C69   1.536       .  S
C68         C381   1.445       .  S
C69          C73   1.535       .  S
C69          C71   1.532       .  S
C69          H75   1.112       .  S
C70          H76   1.086       .  S
C70          C71   1.364       .  D
C71         C389   1.440       .  S
C72          H77   1.087       .  S
C72          C73   1.365       .  D
C73         C382   1.446       .  S
N78          C83   1.356       .  A
N78          C82   1.356   1_455  A
N78         H110   1.034       .  S
N79          C86   1.353       .  A
N79          C87   1.353   1_565  A
N80          C85   1.354   1_655  A
N80          C84   1.353       .  A
N80         H111   1.034       .  S
N81          C88   1.352       .  A
N81          C89   1.353   1_565  A
C82          C90   1.387       .  A
C82          C98   1.419       .  A
C83          C99   1.419       .  A
C83          C91   1.388       .  A
C84          C92   1.388       .  A
C84         C101   1.416       .  A
C85         C100   1.416       .  A
C85          C93   1.388       .  A
C86          C98   1.415       .  A
C86          C94   1.388       .  A
C87         C101   1.414       .  A
C87          C95   1.387       .  A
C88          C96   1.388       .  A
C88          C99   1.415       .  A
C89          C97   1.386       .  A
C89         C100   1.414       .  A
C90          C91   1.378   1_655  A
C90         H102   1.082       .  S
C91         H103   1.082       .  S
C92          C93   1.375   1_655  A
C92         H104   1.082       .  S
C93         H105   1.082       .  S
C94          C95   1.370   1_565  A
C94         H106   1.082       .  S
C95         H107   1.082       .  S
C96          C97   1.372   1_565  A
C96         H108   1.082       .  S
C97         H109   1.082       .  S
C98         C425   1.457       .  S
C99         C397   1.455       .  S
C100        C378   1.454       .  S
C101        C406   1.450       .  S
C112        C113   1.545       .  S
C112        C118   1.540       .  S
C112        C116   1.541       .  S
C112        C433   1.489       .  S
C113        H120   1.086       .  S
C113        C114   1.371       .  D
C114        C115   1.537       .  S
C114        C370   1.457       .  S
C115        C119   1.535       .  S
C115        C117   1.534       .  S
C115        H121   1.112       .  S
C116        H122   1.086       .  S
C116        C117   1.366       .  D
C117        C369   1.449       .  S
C118        H123   1.086       .  S
C118        C119   1.367       .  D
C119        C377   1.448       .  S
C124        C125   1.547       .  S
C124        C130   1.538       .  S
C124        C128   1.531       .  S
C124        C437   1.485       .  S
C125        H132   1.086       .  S
C125        C126   1.372       .  D
C126        C127   1.537       .  S
C126        C365   1.454       .  S
C127        C131   1.537       .  S
C127        C129   1.532       .  S
C127        H133   1.112       .  S
C128        H134   1.087       .  S
C128        C129   1.362       .  D
C129        C357   1.439       .  S
C130        H135   1.086       .  S
C130        C131   1.367       .  D
C131        C361   1.444       .  S
N136        C141   1.348       .  A
N136        C140   1.347   1_556  A
N136        H168   1.044       .  S
N137        C144   1.345   1_655  A
N137        C145   1.343       .  A
N138        C143   1.354       .  A
N138        C142   1.359   1_556  A
N138        H169   1.037       .  S
N139        C146   1.353   1_655  A
N139        C147   1.349       .  A
C140        C148   1.380       .  A
C140        C156   1.401       .  A
C141        C157   1.409       .  A
C141        C149   1.391       .  A
C142        C150   1.385       .  A
C142        C159   1.422       .  A
C143        C158   1.426       .  A
C143        C151   1.392       .  A
C144        C156   1.402       .  A
C144        C152   1.380       .  A
C145        C159   1.412       .  A
C145        C153   1.390       .  A
C146        C154   1.384       .  A
C146        C157   1.415       .  A
C147        C155   1.390       .  A
C147        C158   1.422       .  A
C148        C149   1.386   1_554  A
C148        H160   1.082       .  S
C149        H161   1.082       .  S
C150        C151   1.377   1_554  A
C150        H162   1.082       .  S
C151        H163   1.082       .  S
C152        C153   1.385   1_455  A
C152        H164   1.082       .  S
C153        H165   1.082       .  S
C154        C155   1.382   1_455  A
C154        H166   1.082       .  S
C155        H167   1.082       .  S
C156        C271   1.516       .  S
C157        C393   1.453       .  S
C158        C421   1.453       .  S
C159        C366   1.456       .  S
C170        C171   1.544       .  S
C170        C176   1.540       .  S
C170        C174   1.533       .  S
C170        C440   1.486       .  S
C171        H178   1.086       .  S
C171        C172   1.370       .  D
C172        C173   1.539       .  S
C172        C346   1.455       .  S
C173        C177   1.538       .  S
C173        C175   1.532       .  S
C173        H179   1.112       .  S
C174        H180   1.087       .  S
C174        C175   1.363       .  D
C175        C342   1.440       .  S
C176        H181   1.086       .  S
C176        C177   1.369       .  D
C177        C350   1.449       .  S
N182        C187   1.355   1_545  A
N182        C186   1.356       .  A
N182        H214   1.039       .  S
N183        C190   1.355   1_455  A
N183        C191   1.354       .  A
N184        C189   1.356   1_545  A
N184        C188   1.355       .  A
N184        H215   1.036       .  S
N185        C192   1.353   1_455  A
N185        C193   1.354       .  A
C186        C194   1.387       .  A
C186        C202   1.417       .  A
C187        C203   1.417       .  A
C187        C195   1.388       .  A
C188        C196   1.388       .  A
C188        C205   1.419       .  A
C189        C204   1.418       .  A
C189        C197   1.387       .  A
C190        C202   1.416       .  A
C190        C198   1.386       .  A
C191        C205   1.418       .  A
C191        C199   1.387       .  A
C192        C200   1.387       .  A
C192        C203   1.416       .  A
C193        C201   1.387       .  A
C193        C204   1.417       .  A
C194        C195   1.376   1_545  A
C194        H206   1.082       .  S
C195        H207   1.082       .  S
C196        C197   1.377   1_545  A
C196        H208   1.082       .  S
C197        H209   1.082       .  S
C198        C199   1.376   1_655  A
C198        H210   1.082       .  S
C199        H211   1.082       .  S
C200        C201   1.376   1_655  A
C200        H212   1.082       .  S
C201        H213   1.082       .  S
C202        C341   1.462       .  S
C203        C374   1.456       .  S
C204        C362   1.462       .  S
C205        C353   1.458       .  S
N216        C221   1.357   1_545  A
N216        C220   1.354       .  A
N216        H248   1.037       .  S
N217        C224   1.353   1_554  A
N217        C225   1.355       .  A
N218        C223   1.355   1_545  A
N218        C222   1.357       .  A
N218        H249   1.038       .  S
N219        C226   1.353   1_554  A
N219        C227   1.352       .  A
C220        C228   1.390       .  A
C220        C236   1.419       .  A
C221        C237   1.418       .  A
C221        C229   1.386       .  A
C222        C230   1.388       .  A
C222        C239   1.418       .  A
C223        C238   1.417       .  A
C223        C231   1.387   1_565  A
C224        C236   1.418       .  A
C224        C232   1.387       .  A
C225        C239   1.417       .  A
C225        C233   1.385       .  A
C226        C234   1.386       .  A
C226        C237   1.413       .  A
C227        C235   1.387       .  A
C227        C238   1.413       .  A
C228        C229   1.374   1_545  A
C228        H240   1.082       .  S
C229        H241   1.082       .  S
C230        C231   1.372       .  A
C230        H242   1.082       .  S
C231        H243   1.082   1_545  S
C232        C233   1.375   1_556  A
C232        H244   1.082       .  S
C233        H245   1.082       .  S
C234        C235   1.373   1_556  A
C234        H246   1.082       .  S
C235        H247   1.082       .  S
C236        C385   1.455       .  S
C237        C401   1.461       .  S
C238        C358   1.453       .  S
C239        C349   1.464       .  S
N250        C255   1.347   1_655  A
N250        C254   1.354       .  A
N250        H282   1.039       .  S
N251        C258   1.348   1_556  A
N251        C259   1.344       .  A
N252        C257   1.355   1_655  A
N252        C256   1.356       .  A
N252        H283   1.035       .  S
N253        C260   1.348   1_556  A
N253        C261   1.348       .  A
C254        C262   1.389       .  A
C254        C270   1.413       .  A
C255        C271   1.407       .  A
C255        C263   1.381   1_455  A
C256        C264   1.388       .  A
C256        C273   1.419       .  A
C257        C272   1.418       .  A
C257        C265   1.388       .  A
C258        C270   1.408       .  A
C258        C266   1.385       .  A
C259        C273   1.411       .  A
C259        C267   1.390       .  A
C260        C268   1.384       .  A
C260        C271   1.413       .  A
C261        C269   1.389       .  A
C261        C272   1.413       .  A
C262        C263   1.378       .  A
C262        H274   1.082       .  S
C263        H275   1.082   1_655  S
C264        C265   1.374   1_655  A
C264        H276   1.082       .  S
C265        H277   1.082       .  S
C266        C267   1.374   1_554  A
C266        H278   1.082       .  S
C267        H279   1.082       .  S
C268        C269   1.375   1_554  A
C268        H280   1.082       .  S
C269        H281   1.082       .  S
C270        C337   1.449       .  S
C272        C386   1.450       .  S
C273        C413   1.444       .  S
C284        C285   1.545       .  S
C284        C290   1.539       .  S
C284        C288   1.538       .  S
C284        C439   1.484       .  S
C285        H292   1.086       .  S
C285        C286   1.372       .  D
C286        C287   1.536       .  S
C286        C338   1.454       .  S
C287        C291   1.536       .  S
C287        C289   1.532       .  S
C287        H293   1.112       .  S
C288        H294   1.087       .  S
C288        C289   1.363       .  D
C289        C334   1.441       .  S
C290        H295   1.086       .  S
C290        C291   1.366       .  D
C291        C333   1.450       .  S
N296        C301   1.359   1_554  A
N296        C300   1.356       .  A
N296        H328   1.037       .  S
N297        C304   1.353       .  A
N297        C305   1.355   1_545  A
N298        C303   1.354   1_554  A
N298        C302   1.357       .  A
N298        H329   1.038       .  S
N299        C306   1.355       .  A
N299        C307   1.353   1_545  A
C300        C308   1.388       .  A
C300        C316   1.421       .  A
C301        C317   1.421       .  A
C301        C309   1.386       .  A
C302        C310   1.387       .  A
C302        C319   1.418       .  A
C303        C318   1.417       .  A
C303        C311   1.388       .  A
C304        C316   1.417       .  A
C304        C312   1.387       .  A
C305        C319   1.416       .  A
C305        C313   1.385       .  A
C306        C314   1.386       .  A
C306        C317   1.415       .  A
C307        C315   1.387       .  A
C307        C318   1.415       .  A
C308        C309   1.377   1_554  A
C308        H320   1.082       .  S
C309        H321   1.082       .  S
C310        C311   1.375   1_554  A
C310        H322   1.082       .  S
C311        H323   1.082       .  S
C312        C313   1.374   1_545  A
C312        H324   1.082       .  S
C313        H325   1.082       .  S
C314        C315   1.373   1_545  A
C314        H326   1.082       .  S
C315        H327   1.082       .  S
C316        C330   1.458       .  S
C317        C402   1.467       .  S
C318        C417   1.453       .  S
C319        C373   1.465       .  S
C330        C331   1.211       .  T
C331        C332   1.420       .  S
C332        C333   1.211       .  T
C334        C335   1.205       .  T
C335        C336   1.411       .  S
C336        C337   1.206       .  T
C338        C339   1.213       .  T
C339        C340   1.424       .  S
C340        C341   1.214       .  T
C342        C343   1.204       .  T
C343        C344   1.409       .  S
C344        C345   1.203       .  T
C345        C354   1.408       .  S
C346        C347   1.214       .  T
C347        C348   1.426       .  S
C348        C349   1.214       .  T
C350        C351   1.210       .  T
C351        C352   1.420       .  S
C352        C353   1.211       .  T
C354        C355   1.203       .  T
C355        C356   1.408       .  S
C356        C357   1.204       .  T
C358        C359   1.207       .  T
C359        C360   1.414       .  S
C360        C361   1.207       .  T
C362        C363   1.214       .  T
C363        C364   1.424       .  S
C364        C365   1.213       .  T
C366        C367   1.211       .  T
C367        C368   1.420       .  S
C368        C369   1.210       .  T
C370        C371   1.215       .  T
C371        C372   1.427       .  S
C372        C373   1.215       .  T
C374        C375   1.210       .  T
C375        C376   1.418       .  S
C376        C377   1.209       .  T
C378        C379   1.208       .  T
C379        C380   1.415       .  S
C380        C381   1.208       .  T
C382        C383   1.208       .  T
C383        C384   1.416       .  S
C384        C385   1.209       .  T
C386        C387   1.206       .  T
C387        C388   1.411       .  S
C388        C389   1.205       .  T
C390        C391   1.209       .  T
C391        C392   1.419       .  S
C392        C393   1.210       .  T
C394        C395   1.208       .  T
C395        C396   1.416       .  S
C396        C397   1.209       .  T
C398        C399   1.212       .  T
C399        C400   1.422       .  S
C400        C401   1.212       .  T
C402        C403   1.216       .  T
C403        C404   1.429       .  S
C404        C405   1.216       .  T
C406        C407   1.205       .  T
C407        C408   1.411       .  S
C408        C409   1.205       .  T
C410        C411   1.201       .  T
C411        C412   1.404       .  S
C412        C413   1.201       .  T
C414        C415   1.207       .  T
C415        C416   1.414       .  S
C416        C417   1.207       .  T
C418        C419   1.207       .  T
C419        C420   1.414       .  S
C420        C421   1.208       .  T
C422        C423   1.209       .  T
C423        C424   1.417       .  S
C424        C425   1.210       .  T
C426        C427   1.212       .  T
C428        C429   1.214       .  T
C430        C431   1.212       .  T
C432        C433   1.218       .  T
C434        C435   1.210       .  T
C436        C437   1.216       .  T
C438        C439   1.215       .  T
C440        C441   1.216       .  T
