geometry optimzed in LAMMPS
_audit_creation_date              2020-12-01 
_audit_creation_method            'lammps2cif' 
_symmetry_space_group_name_H-M    'P1' 
_symmetry_Int_Tables_number       1 
_symmetry_cell_setting            triclinic 
loop_ 
_symmetry_equiv_pos_as_xyz 
  x,y,z 
_cell_length_a                    55.00024909 
_cell_length_b                    54.98917299789288 
_cell_length_c                    29.566380818110584 
_cell_angle_alpha                 90.74113385780879 
_cell_angle_beta                  90.09709244942586 
_cell_angle_gamma                 120.03841591614677 
loop_ 
_atom_site_label 
_atom_site_type_symbol 
_atom_site_fract_x 
_atom_site_fract_y 
_atom_site_fract_z 
_atom_site_charge 
C1          C  0.47187270  0.72159147  0.20695173     0.03600
C2          C  0.47187503  0.72166748  0.25472541    -0.12600
C3          C  0.46815820  0.74160530  0.27953436     0.01100
C4          C  0.46444515  0.76158691  0.25617176    -0.11100
C5          C  0.46468235  0.76208427  0.20886149     0.03600
C6          C  0.46814519  0.74192796  0.18462286    -0.10500
H7          H  0.47554963  0.70684132  0.27283381     0.09200
H8          H  0.46171291  0.77709144  0.27486390     0.06700
H9          H  0.46758736  0.74199899  0.14802526     0.06500
C10         C  0.45285513  0.70670054  0.68027392     0.03600
C11         C  0.45164927  0.70630321  0.63294970    -0.12600
C12         C  0.44990919  0.72737400  0.60936714     0.01100
C13         C  0.44861389  0.74873782  0.63415845    -0.11100
C14         C  0.44980489  0.74936562  0.68176105     0.03600
C15         C  0.45204772  0.72833081  0.70445453    -0.10500
H16         H  0.45312958  0.68999121  0.61446154     0.09200
H17         H  0.44706821  0.76504638  0.61655813     0.06700
H18         H  0.45243394  0.72839365  0.74114500     0.06500
C19         C  0.22421186  0.76157478  0.67356457     0.03600
C20         C  0.22261408  0.75978838  0.62624058    -0.12600
C21         C  0.19806147  0.73953482  0.60370967     0.01100
C22         C  0.17528733  0.72003135  0.62968666    -0.11100
C23         C  0.17673826  0.72101282  0.67736667     0.03600
C24         C  0.20125343  0.74205933  0.69877108    -0.10500
H25         H  0.24050936  0.77457627  0.60711260     0.09200
H26         H  0.15615134  0.70454682  0.61285118     0.06700
H27         H  0.20281487  0.74289209  0.73541457     0.06500
C28         C  0.21638452  0.77950845  0.20018830     0.03600
C29         C  0.19298589  0.75775018  0.17800686    -0.12600
C30         C  0.17263653  0.73485906  0.20187973     0.01100
C31         C  0.17529590  0.73406899  0.24893465    -0.11100
C32         C  0.19846259  0.75580881  0.27245143     0.03600
C33         C  0.21910017  0.77842679  0.24740194    -0.10500
H34         H  0.19124229  0.75797433  0.14162868     0.09200
H35         H  0.15883853  0.71669997  0.26680996     0.06700
H36         H  0.23723228  0.79534237  0.26443268     0.06500
C37         C  0.18072466  0.46374897  0.20787936     0.03600
C38         C  0.17761332  0.45907570  0.25488053    -0.12600
C39         C  0.19879773  0.45807682  0.28046795     0.01100
C40         C  0.22319742  0.46229828  0.25816593    -0.11100
C41         C  0.22635215  0.46667170  0.21149749     0.03600
C42         C  0.20514793  0.46759837  0.18680393    -0.10500
H43         H  0.15841577  0.45526482  0.27088362     0.09200
H44         H  0.23976435  0.46163993  0.27691423     0.06700
H45         H  0.20787399  0.47178629  0.15093982     0.06500
C46         C  0.16123447  0.43008748  0.68405988     0.03600
C47         C  0.16029834  0.43081327  0.63668943    -0.12600
C48         C  0.18212671  0.43227852  0.61009674     0.01100
C49         C  0.20498936  0.43228417  0.63207635    -0.11100
C50         C  0.20561789  0.43033528  0.67947731     0.03600
C51         C  0.18356958  0.42911194  0.70499973    -0.10500
H52         H  0.14243504  0.43042816  0.62051513     0.09200
H53         H  0.22239908  0.43393548  0.61274999     0.06700
H54         H  0.18460970  0.42896037  0.74143660     0.06500
C55         C  0.75884407  0.22872217  0.67987177     0.03600
C56         C  0.75897357  0.22791397  0.63231809    -0.12600
C57         C  0.73637375  0.20619421  0.60806053     0.01100
C58         C  0.71347795  0.18557965  0.63171895    -0.11100
C59         C  0.71226103  0.18666313  0.67908170     0.03600
C60         C  0.73543857  0.20806238  0.70300539    -0.10500
H61         H  0.77682170  0.24393332  0.61428409     0.09200
H62         H  0.69605032  0.16920626  0.61273593     0.06700
H63         H  0.73491364  0.20964626  0.73936602     0.06500
C64         C  0.74638832  0.24645490  0.20916286     0.03600
C65         C  0.74671281  0.24564954  0.25651942    -0.12600
C66         C  0.72710854  0.22166077  0.27975883     0.01100
C67         C  0.70659963  0.19849093  0.25475795    -0.11100
C68         C  0.70595660  0.19903569  0.20728135     0.03600
C69         C  0.72594952  0.22299743  0.18479999    -0.10500
H70         H  0.76296484  0.26346604  0.27517767     0.09200
H71         H  0.69111088  0.17995711  0.27207584     0.06700
H72         H  0.72508848  0.22362082  0.14820019     0.06500
C73         C  0.69512313  0.49972447  0.20877102     0.03600
C74         C  0.69477272  0.49894834  0.25601794    -0.12600
C75         C  0.71783771  0.50156714  0.28086960     0.01100
C76         C  0.74125735  0.50424302  0.25686232    -0.11100
C77         C  0.74176624  0.50509999  0.20922103     0.03600
C78         C  0.71869834  0.50302390  0.18567457    -0.10500
H79         H  0.67658816  0.49707040  0.27321420     0.09200
H80         H  0.75914322  0.50577854  0.27474801     0.06700
H81         H  0.71867329  0.50303831  0.14900927     0.06500
C82         C  0.70234028  0.51353965  0.68192424     0.03600
C83         C  0.72291971  0.51231238  0.70811886    -0.12600
C84         C  0.74400795  0.50896470  0.68778174     0.01100
C85         C  0.74450160  0.50686240  0.64044942    -0.11100
C86         C  0.72417283  0.50819740  0.61339415     0.03600
C87         C  0.70301728  0.51141103  0.63462333    -0.10500
H88         H  0.72223450  0.51341813  0.74456774     0.09200
H89         H  0.76106630  0.50460317  0.62464767     0.06700
H90         H  0.68768901  0.51340996  0.61448481     0.06500
C91         C  0.46591618  0.21605638  0.67688642     0.03600
C92         C  0.46626302  0.23894772  0.69879465    -0.12600
C93         C  0.46758422  0.26111975  0.67419950     0.01100
C94         C  0.46854788  0.26038841  0.62685542    -0.11100
C95         C  0.46739149  0.23723698  0.60383951     0.03600
C96         C  0.46672354  0.21542333  0.62932505    -0.10500
H97         H  0.46590370  0.23978122  0.73551712     0.09200
H98         H  0.46945626  0.27756681  0.60809731     0.06700
H99         H  0.46529078  0.19722101  0.61222157     0.06500
C100        C  0.41674081  0.19112847  0.20782737     0.03600
C101        C  0.42181651  0.19429515  0.25483435    -0.12600
C102        C  0.42457908  0.21802878  0.27831667     0.01100
C103        C  0.42239945  0.23864563  0.25385271    -0.11100
C104        C  0.41781773  0.23601375  0.20686598     0.03600
C105        C  0.41461446  0.21198192  0.18438153    -0.10500
H106        H  0.42305641  0.17802653  0.27304608     0.09200
H107        H  0.42460547  0.25703723  0.27132577     0.06700
H108        H  0.41179437  0.21009041  0.14806592     0.06500
N109        N  0.46989490  0.52893029  0.86201966    -0.05700
N110        N  0.46123337  0.54202996  0.83519159    -0.57800
N111        N  0.52172258  0.51645020  0.88634617    -0.05400
N112        N  0.54776632  0.52427146  0.87437453    -0.59900
N113        N  0.50391565  0.49915309  0.85570802    -0.05000
N114        N  0.51720587  0.49481420  0.82241087    -0.57800
N115        N  0.48731722  0.54635555  0.89302571    -0.04600
N116        N  0.49087707  0.57176366  0.88795066    -0.60300
C117        C  0.47440846  0.56862614  0.85178040     0.96500
C118        C  0.54444933  0.51045173  0.83447105     0.96300
N119        N  0.50665844  0.49699961  0.02427910    -0.05900
N120        N  0.52085246  0.48925201  0.05056799    -0.58400
N121        N  0.49028025  0.54637868  0.99926742    -0.04000
N122        N  0.49553464  0.57213739  0.00910572    -0.59600
N123        N  0.47418264  0.52878703  0.03028471    -0.05900
N124        N  0.46842785  0.54213391  0.06205788    -0.58600
N125        N  0.52311587  0.51444176  0.99332123    -0.03600
N126        N  0.54895851  0.51901737  0.99805428    -0.59700
Mn127      Mn  0.50655258  0.53181284  0.94310516     1.18400
C128        C  0.54711542  0.50309631  0.03380899     0.98600
C129        C  0.48167857  0.56905785  0.04837642     0.99200
N130        N  0.44903604  0.44076190  0.85742566    -0.05900
N131        N  0.45774230  0.42808884  0.82905241    -0.62200
N132        N  0.39782231  0.45284810  0.88969979    -0.04700
N133        N  0.37136759  0.44496072  0.87988674    -0.62900
N134        N  0.41458193  0.47057499  0.85943915    -0.05400
N135        N  0.40012934  0.47521607  0.82862842    -0.62500
N136        N  0.43268637  0.42318931  0.88831259    -0.04300
N137        N  0.42980434  0.39811172  0.88149432    -0.63200
Mn138      Mn  0.45929969  0.48484575  0.85762987     1.10700
C139        C  0.44557171  0.40155499  0.84449415     0.99800
C140        C  0.37327742  0.45930066  0.84180354     0.99900
N141        N  0.41707649  0.47100756  0.02837185    -0.05400
N142        N  0.40326834  0.47775106  0.05766548    -0.60800
N143        N  0.43276694  0.42236865  0.99520281    -0.04700
N144        N  0.42636620  0.39634699  0.00434051    -0.57500
N145        N  0.45004500  0.43988042  0.02620533    -0.06100
N146        N  0.45577908  0.42629979  0.05694291    -0.60400
N147        N  0.39990882  0.45393226  0.99673319    -0.05000
N148        N  0.37410711  0.44884185  0.00365757    -0.57600
Mn149      Mn  0.46204386  0.48423589  0.02859147     1.20200
Mn150      Mn  0.41493829  0.43720632  0.94246218     1.10100
Cl151      Cl  0.46069597  0.48452987  0.94305088    -0.85500
C152        C  0.37656987  0.46382346  0.04169589     0.96800
C153        C  0.44107117  0.39925591  0.04281513     0.96600
N154        N  0.99177503  0.52863071  0.03155343    -0.05700
N155        N  0.01240505  0.54244357  0.06093059    -0.57800
N156        N  0.92668936  0.51168769  0.99923096    -0.05400
N157        N  0.90495092  0.51536093  0.00656157    -0.59900
N158        N  0.92726561  0.49461387  0.02941706    -0.05000
N159        N  0.90617564  0.48630373  0.05763057    -0.57800
N160        N  0.99180544  0.54566678  0.00070125    -0.04600
N161        N  0.01247665  0.57157679  0.00862171    -0.60300
C162        C  0.02513573  0.56911545  0.04621500     0.96500
C163        C  0.89235836  0.49925072  0.04311135     0.96300
N164        N  0.92810588  0.49417817  0.86205852    -0.05900
N165        N  0.90750726  0.48653684  0.83256586    -0.58400
N166        N  0.99247356  0.54556882  0.89295427    -0.04000
N167        N  0.01241212  0.57155815  0.88361910    -0.59600
N168        N  0.99214327  0.52788892  0.86217508    -0.05900
N169        N  0.01148198  0.54122569  0.83152912    -0.58600
N170        N  0.92765583  0.51153114  0.89266638    -0.03600
N171        N  0.90661320  0.51603209  0.88464485    -0.59700
Mn172      Mn  0.95973225  0.52969548  0.94647059     1.18400
C173        C  0.89428243  0.50020676  0.84711598     0.98600
C174        C  0.02409914  0.56833261  0.84516140     0.99200
N175        N  0.92924121  0.43887718  0.02874317    -0.05900
N176        N  0.90789432  0.42474259  0.05601053    -0.62200
N177        N  0.99513577  0.45665141  0.00018416    -0.04700
N178        N  0.01703885  0.45341765  0.00806168    -0.62900
N179        N  0.99361166  0.47308513  0.03135849    -0.05400
N180        N  0.01419174  0.48131449  0.06107149    -0.62500
N181        N  0.93016316  0.42209816  0.99756205    -0.04300
N182        N  0.90934440  0.39614401  0.00279643    -0.63200
Mn183      Mn  0.96041537  0.48378625  0.03156010     1.10700
C184        C  0.89568449  0.39818422  0.03934310     0.99800
C185        C  0.02868467  0.46904742  0.04614481     0.99900
N186        N  0.99441206  0.47219825  0.86215349    -0.05400
N187        N  0.01412868  0.47823091  0.83187924    -0.60800
N188        N  0.93106150  0.42114340  0.89135041    -0.04700
N189        N  0.91290208  0.39458737  0.88104712    -0.57500
N190        N  0.93023924  0.43782301  0.86064987    -0.06100
N191        N  0.91159218  0.42302733  0.82884564    -0.60400
N192        N  0.99535617  0.45593410  0.89350188    -0.05000
N193        N  0.01579076  0.45056439  0.88526789    -0.57600
Mn194      Mn  0.96110848  0.48303767  0.86072779     1.20200
Mn195      Mn  0.96302700  0.43817441  0.94584942     1.10100
Cl196      Cl  0.96107584  0.48369860  0.94610161    -0.85500
C197        C  0.02738082  0.46477028  0.84691533     0.96800
C198        C  0.90083338  0.39615330  0.84206252     0.96600
N199        N  0.47099826  0.95289476  0.02401837    -0.05700
N200        N  0.46274381  0.93217234  0.05296069    -0.57800
N201        N  0.52307418  0.01636045  0.99562816    -0.05400
N202        N  0.54933907  0.03460576  0.00732370    -0.59900
N203        N  0.50557473  0.01717460  0.02505996    -0.05000
N204        N  0.51946101  0.03582580  0.05737775    -0.57800
N205        N  0.48832899  0.95199198  0.99438304    -0.04600
N206        N  0.49225335  0.93065660  0.00241516    -0.60300
C207        C  0.47613807  0.91847468  0.03894275     0.96500
C208        C  0.54665341  0.04664290  0.04582951     0.96300
N209        N  0.50858130  0.01557219  0.85550542    -0.05900
N210        N  0.52361533  0.03607991  0.82733141    -0.58400
N211        N  0.49001041  0.95076401  0.88861785    -0.04000
N212        N  0.49226755  0.92799864  0.88493773    -0.59600
N213        N  0.47377659  0.95107996  0.85620980    -0.05900
N214        N  0.46458837  0.92863328  0.82988876    -0.58600
N215        N  0.52444076  0.01560423  0.88889672    -0.03600
N216        N  0.55052977  0.03626203  0.88442998    -0.59700
Mn217      Mn  0.50733041  0.98376339  0.94170713     1.18400
C218        C  0.54965182  0.04881254  0.84598008     0.98600
C219        C  0.47626695  0.91446900  0.84816194     0.99200
N220        N  0.44936628  0.01978277  0.01929323    -0.05900
N221        N  0.45386070  0.03858765  0.05111639    -0.62200
N222        N  0.39890713  0.95578426  0.98660180    -0.04700
N223        N  0.37269759  0.93562236  0.99377754    -0.62900
N224        N  0.41565416  0.95574635  0.01839896    -0.05400
N225        N  0.40147917  0.93578138  0.04754149    -0.62500
N226        N  0.43293832  0.02028985  0.98729830    -0.04300
N227        N  0.42578763  0.03942988  0.99704978    -0.63200
Mn228      Mn  0.46040461  0.98654280  0.02262767     1.10700
C229        C  0.43923448  0.05077825  0.03682449     0.99800
C230        C  0.37483862  0.92333273  0.03195956     0.99900
N231        N  0.41824931  0.95351443  0.85029216    -0.05400
N232        N  0.40428813  0.93196313  0.82217640    -0.60800
N233        N  0.43612988  0.01988776  0.87935692    -0.04700
N234        N  0.43351668  0.04203494  0.87039633    -0.57500
N235        N  0.45304819  0.01792075  0.84997569    -0.06100
N236        N  0.46221602  0.03838334  0.82065932    -0.60400
N237        N  0.40114938  0.95481343  0.88001980    -0.05000
N238        N  0.37522267  0.93410135  0.87291314    -0.57600
Mn239      Mn  0.46344581  0.98447727  0.85151823     1.20200
Mn240      Mn  0.41642073  0.98786158  0.93304646     1.10100
Cl241      Cl  0.46194287  0.98579981  0.93726460    -0.85500
C242        C  0.37749837  0.92005931  0.83679148     0.96800
C243        C  0.45001031  0.05329309  0.83364956     0.96600
C244        C  0.41456342  0.28826298  0.12484041     0.16400
C245        C  0.41080318  0.30165523  0.08768881    -0.32600
C246        C  0.42429481  0.33107194  0.08915791     0.20800
C247        C  0.44068515  0.34641223  0.12603848     0.03000
C248        C  0.44431403  0.33301283  0.16321969    -0.22400
C249        C  0.43091935  0.30363841  0.16164483     0.12200
S250        S  0.40098715  0.25291468  0.12885832    -0.06000
C251        C  0.41775876  0.25882370  0.18066563    -0.09500
C252        C  0.43273635  0.28694599  0.19381074    -0.26100
S253        S  0.45530170  0.38183809  0.12149662    -0.03300
C254        C  0.43909128  0.37598507  0.06940514    -0.16800
C255        C  0.42329091  0.34798225  0.05640127    -0.14800
H256        H  0.39817389  0.28972465  0.05882656     0.20600
H257        H  0.45717647  0.34495245  0.19190406     0.16700
H258        H  0.44530247  0.29502012  0.22433897     0.19200
H259        H  0.41153115  0.34043188  0.02501674     0.12500
C260        C  0.40924812  0.13213510  0.12697906     0.16400
C261        C  0.40396699  0.11365448  0.09020481    -0.32600
C262        C  0.41905277  0.09926603  0.08857087     0.20800
C263        C  0.43813434  0.10287946  0.12241734     0.03000
C264        C  0.44302470  0.12092857  0.15937688    -0.22400
C265        C  0.42827773  0.13552954  0.16072033     0.12200
S266        S  0.39501036  0.15328912  0.13358720    -0.06000
C267        C  0.41508760  0.16697462  0.18225556    -0.09500
C268        C  0.43151035  0.15519974  0.19267027    -0.26100
S269        S  0.45487250  0.08427389  0.11430368    -0.03300
C270        C  0.43616528  0.07141292  0.06459735    -0.16800
C271        C  0.41776366  0.08106719  0.05506425    -0.14800
H272        H  0.38933037  0.11114389  0.06361425     0.20600
H273        H  0.45811559  0.12391365  0.18544072     0.16700
H274        H  0.44613114  0.16166491  0.22082932     0.19200
H275        H  0.40420371  0.07504829  0.02553958     0.12500
C276        C  0.43624317  0.23627667  0.40606535     0.16400
C277        C  0.43796022  0.24738795  0.44957287    -0.32600
C278        C  0.45023379  0.23954909  0.48372224     0.20800
C279        C  0.46048150  0.22153417  0.47503108     0.03000
C280        C  0.45889127  0.21049577  0.43132544    -0.22400
C281        C  0.44644274  0.21824208  0.39711106     0.12200
S282        S  0.42209943  0.24332488  0.36032582    -0.06000
C283        C  0.43007809  0.22188029  0.32800905    -0.09500
C284        C  0.44289470  0.20981288  0.35246770    -0.26100
S285        S  0.47347242  0.21375510  0.52175753    -0.03300
C286        C  0.46471870  0.23480083  0.55362993    -0.16800
C287        C  0.45272430  0.24732592  0.52839309    -0.14800
H288        H  0.42983662  0.26140275  0.45660682     0.20600
H289        H  0.46674108  0.19626000  0.42439542     0.16700
H290        H  0.44995919  0.19617717  0.33834131     0.19200
H291        H  0.44491279  0.26046158  0.54209949     0.12500
C292        C  0.47280447  0.32796260  0.72620686     0.16400
C293        C  0.47890991  0.35535546  0.73683500    -0.32600
C294        C  0.46449207  0.35886735  0.77308676     0.20800
C295        C  0.44510942  0.33622206  0.79794928     0.03000
C296        C  0.43932256  0.30892279  0.78773707    -0.22400
C297        C  0.45356406  0.30539384  0.75130818     0.12200
S298        S  0.48698409  0.31899899  0.68222074    -0.06000
C299        C  0.46696856  0.28449543  0.69818587    -0.09500
C300        C  0.45022974  0.28043834  0.73556482    -0.26100
S301        S  0.42913580  0.34470213  0.83961317    -0.03300
C302        C  0.44865258  0.37908206  0.82317250    -0.16800
C303        C  0.46669312  0.38362513  0.78754966    -0.14800
H304        H  0.49378670  0.37300019  0.71731244     0.20600
H305        H  0.42412004  0.29121682  0.80683009     0.16700
H306        H  0.43599912  0.26025645  0.74993818     0.19200
H307        H  0.48032605  0.40381194  0.77270091     0.12500
C308        C  0.46688529  0.11518665  0.75679103     0.16400
C309        C  0.47594572  0.13460256  0.72168934    -0.32600
C310        C  0.46827175  0.15533495  0.72343647     0.20800
C311        C  0.45263266  0.15688424  0.75892254     0.03000
C312        C  0.44376107  0.13760337  0.79425937    -0.22400
C313        C  0.45108776  0.11660102  0.79219665     0.12200
S314        S  0.47326143  0.08800800  0.75984898    -0.06000
C315        C  0.45427673  0.07821463  0.80918109    -0.09500
C316        C  0.44374812  0.09536206  0.82254054    -0.26100
S317        S  0.44516323  0.18329241  0.75458795    -0.03300
C318        C  0.46315992  0.19238701  0.70413339    -0.16800
C319        C  0.47437045  0.17560850  0.69185135    -0.14800
H320        H  0.48809373  0.13334407  0.69391079     0.20600
H321        H  0.43138191  0.13869714  0.82176699     0.16700
H322        H  0.43132532  0.09236952  0.85250855     0.19200
H323        H  0.48647911  0.17816710  0.66161548     0.12500
C324        C  0.59573562  0.50793919  0.75007712     0.16400
C325        C  0.60840439  0.50133609  0.71461232    -0.32600
C326        C  0.63729520  0.51129353  0.71821647     0.20800
C327        C  0.65289198  0.52749228  0.75507011     0.03000
C328        C  0.64035048  0.53456974  0.78999678    -0.22400
C329        C  0.61142897  0.52420805  0.78685416     0.12200
S330        S  0.56065455  0.49593225  0.75403839    -0.06000
C331        C  0.56724970  0.51269275  0.80604001    -0.09500
C332        C  0.59519922  0.52722987  0.81895333    -0.26100
S333        S  0.68718900  0.53609868  0.75479191    -0.03300
C334        C  0.68059414  0.51749716  0.70452110    -0.16800
C335        C  0.65313806  0.50566268  0.68882525    -0.14800
H336        H  0.59610944  0.48823912  0.68617327     0.20600
H337        H  0.65247816  0.54685855  0.81917893     0.16700
H338        H  0.60310646  0.53863890  0.85076291     0.19200
H339        H  0.64491455  0.49268626  0.65853585     0.12500
C340        C  0.80021429  0.51464881  0.77142498     0.16400
C341        C  0.81983565  0.52171514  0.80659851    -0.32600
C342        C  0.83691452  0.50952030  0.80534643     0.20800
C343        C  0.83436424  0.49098746  0.77087947     0.03000
C344        C  0.81468541  0.48383412  0.73598843    -0.22400
C345        C  0.79785167  0.49621494  0.73697805     0.12200
S346        S  0.77802954  0.52763548  0.76590804    -0.06000
C347        C  0.76570737  0.50826245  0.71627070    -0.09500
C348        C  0.77811221  0.49243191  0.70530567    -0.26100
S349        S  0.85723905  0.47883111  0.77455805    -0.03300
C350        C  0.87049037  0.49895198  0.82297964    -0.16800
C351        C  0.85772732  0.51418528  0.83561747    -0.14800
H352        H  0.82191069  0.53624624  0.83330589     0.20600
H353        H  0.81285030  0.46957175  0.70896663     0.16700
H354        H  0.77295180  0.47881190  0.67582340     0.19200
H355        H  0.86359531  0.52812644  0.86483355     0.12500
C356        C  0.62634275  0.48716945  0.15463463     0.16400
C357        C  0.59841221  0.47838341  0.14343277    -0.32600
C358        C  0.59355219  0.49088895  0.10619209     0.20800
C359        C  0.61542685  0.51119261  0.08108320     0.03000
C360        C  0.64335949  0.51986084  0.09214928    -0.22400
C361        C  0.64822289  0.50734376  0.12939540     0.12200
S362        S  0.63670425  0.47512754  0.19928374    -0.06000
C363        C  0.67092583  0.49741519  0.18355294    -0.09500
C364        C  0.67386426  0.51321047  0.14569240    -0.26100
S365        S  0.60507417  0.52443255  0.03804135    -0.03300
C366        C  0.57099061  0.50251144  0.05443907    -0.16800
C367        C  0.56795937  0.48572047  0.09088703    -0.14800
H368        H  0.58126350  0.46274326  0.16312477     0.20600
H369        H  0.66052572  0.53581154  0.07288055     0.16700
H370        H  0.69369581  0.52854425  0.13140590     0.19200
H371        H  0.54814476  0.47102700  0.10604129     0.12500
C372        C  0.73870253  0.51043800  0.48519830     0.16400
C373        C  0.75051523  0.51386112  0.44206839    -0.32600
C374        C  0.73259660  0.50757888  0.40447350     0.20800
C375        C  0.70430857  0.49840795  0.40974851     0.03000
C376        C  0.69252099  0.49501632  0.45275345    -0.22400
C377        C  0.71037770  0.50121603  0.49023415     0.12200
S378        S  0.75671394  0.51694453  0.53506759    -0.06000
C379        C  0.72572189  0.50725686  0.56324409    -0.09500
C380        C  0.70277494  0.49923045  0.53467897    -0.26100
S381        S  0.68610449  0.49191302  0.36035722    -0.03300
C382        C  0.71686976  0.50152963  0.33139050    -0.16800
C383        C  0.73998193  0.50947862  0.35974885    -0.14800
H384        H  0.77261340  0.52105602  0.43801346     0.20600
H385        H  0.67043105  0.48787452  0.45680632     0.16700
H386        H  0.68152274  0.49208438  0.54555160     0.19200
H387        H  0.76120730  0.51661197  0.34869878     0.12500
C388        C  0.79989830  0.51442155  0.12695290     0.16400
C389        C  0.81836788  0.52093059  0.09049383    -0.32600
C390        C  0.83513440  0.50834387  0.08901391     0.20800
C391        C  0.83328987  0.48989595  0.12219626     0.03000
C392        C  0.81494673  0.48350581  0.15867605    -0.22400
C393        C  0.79846766  0.49633163  0.16043397     0.12200
S394        S  0.77723540  0.52678338  0.13422613    -0.06000
C395        C  0.76579636  0.50750408  0.18313002    -0.09500
C396        C  0.77919854  0.49253251  0.19303129    -0.26100
S397        S  0.85556583  0.47713356  0.11509686    -0.03300
C398        C  0.86812464  0.49733320  0.06745691    -0.16800
C399        C  0.85510217  0.51264912  0.05724261    -0.14800
H400        H  0.81964729  0.53522489  0.06448602     0.20600
H401        H  0.81368772  0.46924580  0.18470992     0.16700
H402        H  0.77429132  0.47869821  0.22155390     0.19200
H403        H  0.86051690  0.52676762  0.02900149     0.12500
C404        C  0.59906372  0.10115887  0.12998372     0.16400
C405        C  0.61183165  0.12017691  0.16600759    -0.32600
C406        C  0.64076181  0.13877139  0.16369117     0.20800
C407        C  0.65643797  0.13839377  0.12728852     0.03000
C408        C  0.64372632  0.11894539  0.09150728    -0.22400
C409        C  0.61462550  0.10044312  0.09362792     0.12200
S410        S  0.56394307  0.07828708  0.12549625    -0.06000
C411        C  0.57003334  0.06765771  0.07385416    -0.09500
C412        C  0.59802592  0.08093199  0.06130394    -0.26100
S413        S  0.69105615  0.16377983  0.13009392    -0.03300
C414        C  0.68425650  0.17477723  0.18105915    -0.16800
C415        C  0.65658932  0.15941438  0.19471861    -0.14800
H416        H  0.59963018  0.12087447  0.19413756     0.20600
H417        H  0.65582903  0.11869919  0.06285984     0.16700
H418        H  0.60566563  0.07708158  0.02984713     0.19200
H419        H  0.64830661  0.16361709  0.22518333     0.12500
C420        C  0.83440054  0.32969844  0.08229979     0.16400
C421        C  0.81401116  0.30174303  0.08984837    -0.32600
C422        C  0.79851267  0.29588023  0.12973463     0.20800
C423        C  0.80298652  0.31685655  0.16078800     0.03000
C424        C  0.82321110  0.34490418  0.15305577    -0.22400
C425        C  0.83878642  0.35075620  0.11318087     0.12200
S426        S  0.85621467  0.34089405  0.03689759    -0.06000
C427        C  0.87144511  0.37426737  0.05987755    -0.09500
C428        C  0.85995365  0.37648065  0.10028364    -0.26100
S429        S  0.78262174  0.30511186  0.20782481    -0.03300
C430        C  0.76781447  0.27151071  0.18527128    -0.16800
C431        C  0.77834537  0.26991443  0.14346230    -0.14800
H432        H  0.81064260  0.28518938  0.06595340     0.20600
H433        H  0.82693849  0.36137565  0.17735113     0.16700
H434        H  0.86715696  0.39575826  0.11970804     0.19200
H435        H  0.77216161  0.25065454  0.12452841     0.12500
C436        C  0.61978397  0.10973568  0.80739163     0.16400
C437        C  0.64791969  0.13078804  0.80314910    -0.32600
C438        C  0.65723214  0.14154666  0.75993822     0.20800
C439        C  0.63920991  0.13207836  0.72288309     0.03000
C440        C  0.61101677  0.11135314  0.72716367    -0.22400
C441        C  0.60180451  0.10035181  0.77017804     0.12200
S442        S  0.60497138  0.09246498  0.85611321    -0.06000
C443        C  0.57435827  0.07240482  0.82586880    -0.09500
C444        C  0.57555697  0.07909113  0.78069333    -0.26100
S445        S  0.65456751  0.14705926  0.67331932    -0.03300
C446        C  0.68603306  0.16633806  0.70235127    -0.16800
C447        C  0.68409093  0.16120109  0.74850327    -0.14800
H448        H  0.66210082  0.13796708  0.83205652     0.20600
H449        H  0.59702851  0.10369857  0.69804058     0.16700
H450        H  0.55850107  0.06825037  0.75652390     0.19200
H451        H  0.70132983  0.17072757  0.77252915     0.12500
C452        C  0.72564392  0.19434055  0.47917983     0.16400
C453        C  0.71781930  0.18351419  0.43496383    -0.32600
C454        C  0.72421364  0.20280243  0.40003232     0.20800
C455        C  0.73759628  0.23145343  0.40889441     0.03000
C456        C  0.74543689  0.24221640  0.45291947    -0.22400
C457        C  0.73929942  0.22305253  0.48768877     0.12200
S458        S  0.71929467  0.17468997  0.52651005    -0.06000
C459        C  0.73544368  0.20559742  0.55801829    -0.09500
C460        C  0.74515118  0.22963983  0.53264322    -0.26100
S461        S  0.74381027  0.25150741  0.36236738    -0.03300
C462        C  0.72853375  0.22108231  0.32986813    -0.16800
C463        C  0.71889417  0.19667307  0.35472424    -0.14800
H464        H  0.70721906  0.16107417  0.42810610     0.20600
H465        H  0.75598438  0.26465153  0.45977746     0.16700
H466        H  0.75506847  0.25083545  0.54650205     0.19200
H467        H  0.70920051  0.17556498  0.34049449     0.12500
C468        C  0.81750025  0.28238719  0.75918527     0.16400
C469        C  0.83632062  0.29665886  0.79508695    -0.32600
C470        C  0.85165619  0.32616304  0.79397886     0.20800
C471        C  0.84860808  0.34066470  0.75842172     0.03000
C472        C  0.83031737  0.32640430  0.72219454    -0.22400
C473        C  0.81481458  0.29703045  0.72352673     0.12200
S474        S  0.79527939  0.24686768  0.75565866    -0.06000
C475        C  0.78239986  0.25188153  0.70546425    -0.09500
C476        C  0.79499937  0.27967752  0.69243160    -0.26100
S477        S  0.86800807  0.37629626  0.76384976    -0.03300
C478        C  0.88045466  0.37184704  0.81468219    -0.16800
C479        C  0.87012862  0.34402665  0.82642956    -0.14800
H480        H  0.83837219  0.28534816  0.82309943     0.20600
H481        H  0.82780031  0.33773829  0.69469689     0.16700
H482        H  0.78919902  0.28692085  0.66265114     0.19200
H483        H  0.87562442  0.33727969  0.85711194     0.12500
C484        C  0.31876811  0.45727888  0.75851872     0.16400
C485        C  0.30458378  0.46100677  0.72216135    -0.32600
C486        C  0.27511882  0.44587971  0.72237137     0.20800
C487        C  0.26052727  0.42780862  0.75719981     0.03000
C488        C  0.27469475  0.42389873  0.79328721    -0.22400
C489        C  0.30409549  0.43909862  0.79321858     0.12200
S490        S  0.35436737  0.47395067  0.76490131    -0.06000
C491        C  0.34940541  0.45620954  0.81479155    -0.09500
C492        C  0.32157931  0.43837820  0.82566087    -0.26100
S493        S  0.22497292  0.41248496  0.75271202    -0.03300
C494        C  0.22955383  0.43072715  0.70341086    -0.16800
C495        C  0.25745241  0.44743576  0.69109878    -0.14800
H496        H  0.31603854  0.47535819  0.69513402     0.20600
H497        H  0.26324497  0.40988031  0.82065614     0.16700
H498        H  0.31452376  0.42544923  0.85551722     0.19200
H499        H  0.26450139  0.46099536  0.66198454     0.12500
C500        C  0.11075887  0.43475141  0.76935420     0.16400
C501        C  0.09519269  0.43404805  0.80728915    -0.32600
C502        C  0.07928622  0.44747402  0.80409723     0.20800
C503        C  0.07899436  0.46108106  0.76509090     0.03000
C504        C  0.09458156  0.46182671  0.72731361    -0.22400
C505        C  0.11032695  0.44829405  0.73043515     0.12200
S506        S  0.13178851  0.42019653  0.76625716    -0.06000
C507        C  0.14013149  0.43256478  0.71178018    -0.09500
C508        C  0.12699202  0.44707828  0.69739341    -0.26100
S509        S  0.05786041  0.47546779  0.76738450    -0.03300
C510        C  0.04905699  0.46273496  0.82130775    -0.16800
C511        C  0.06214709  0.44844271  0.83667201    -0.14800
H512        H  0.09538499  0.42349930  0.83766403     0.20600
H513        H  0.09433456  0.47229172  0.69693162     0.16700
H514        H  0.13016388  0.45714967  0.66515932     0.19200
H515        H  0.05874555  0.43869463  0.86935345     0.12500
C516        C  0.17308706  0.44319406  0.48291111     0.16400
C517        C  0.16597271  0.44974320  0.44084571    -0.32600
C518        C  0.18029124  0.44822368  0.40250203     0.20800
C519        C  0.20040387  0.44021340  0.40616005     0.03000
C520        C  0.20727315  0.43346474  0.44794704    -0.22400
C521        C  0.19329594  0.43530424  0.48616746     0.12200
S522        S  0.15921169  0.44473459  0.53371327    -0.06000
C523        C  0.18113596  0.43488886  0.55994614    -0.09500
C524        C  0.19791039  0.43040466  0.52982974    -0.26100
S525        S  0.21604181  0.44029126  0.35668254    -0.03300
C526        C  0.19570985  0.45170223  0.32979995    -0.16800
C527        C  0.17735340  0.45474039  0.35870890    -0.14800
H528        H  0.15036756  0.45616000  0.43825635     0.20600
H529        H  0.22321817  0.42750047  0.45064557     0.16700
H530        H  0.21282514  0.42391004  0.53893650     0.19200
H531        H  0.16319928  0.46202736  0.34877392     0.12500
C532        C  0.30931272  0.46004472  0.08439024     0.16400
C533        C  0.28199563  0.45507294  0.09039303    -0.32600
C534        C  0.27586417  0.46340418  0.13173935     0.20800
C535        C  0.29596296  0.47614022  0.16565990     0.03000
C536        C  0.32343088  0.48150607  0.15942214    -0.22400
C537        C  0.32957100  0.47315337  0.11805330     0.12200
S538        S  0.32058817  0.45045087  0.03740052    -0.06000
C539        C  0.35298886  0.46450308  0.06324923    -0.09500
C540        C  0.35482232  0.47596832  0.10592827    -0.26100
S541        S  0.28385734  0.48340321  0.21409597    -0.03300
C542        C  0.25132666  0.46927426  0.18824463    -0.16800
C543        C  0.25032301  0.45956208  0.14434820    -0.14800
H544        H  0.26608864  0.44477857  0.06422440     0.20600
H545        H  0.33919899  0.49136926  0.18586594     0.16700
H546        H  0.37346518  0.48542156  0.12716495     0.19200
H547        H  0.23166572  0.44936762  0.12312660     0.12500
C548        C  0.08709494  0.47769716  0.12622564     0.16400
C549        C  0.10425321  0.48209326  0.16402026    -0.32600
C550        C  0.12396003  0.47315377  0.16084702     0.20800
C551        C  0.12696661  0.46106910  0.12136082     0.03000
C552        C  0.10984985  0.45674362  0.08339610    -0.22400
C553        C  0.08959361  0.46501419  0.08700546     0.12200
S554        S  0.06110011  0.48585124  0.12450637    -0.06000
C555        C  0.05287816  0.47130931  0.07087218    -0.09500
C556        C  0.06987373  0.46121373  0.05491572    -0.26100
S557        S  0.15223850  0.45188716  0.12433875    -0.03300
C558        C  0.15856065  0.46403113  0.17976367    -0.16800
C559        C  0.14186196  0.47474998  0.19456950    -0.14800
H560        H  0.10196105  0.49153742  0.19477162     0.20600
H561        H  0.11187238  0.44692640  0.05285617     0.16700
H562        H  0.06760562  0.45124598  0.02217251     0.19200
H563        H  0.14303714  0.48363050  0.22790642     0.12500
C564        C  0.08417164  0.62284763  0.12262480     0.16400
C565        C  0.10364021  0.63681578  0.15758916    -0.32600
C566        C  0.11839701  0.66621570  0.15738459     0.20800
C567        C  0.11414707  0.68105924  0.12371426     0.03000
C568        C  0.09471488  0.66709653  0.08869983    -0.22400
C569        C  0.07983148  0.63769420  0.08902354     0.12200
S570        S  0.06353333  0.58731434  0.11773133    -0.06000
C571        C  0.04870009  0.59254604  0.07021335    -0.14900
C572        C  0.05955303  0.62035735  0.05859130    -0.26100
S573        S  0.13462354  0.71658548  0.12885479    -0.03300
C574        C  0.14915914  0.71144144  0.17695516    -0.16800
C575        C  0.13833344  0.68352739  0.18822005    -0.14800
H576        H  0.10702486  0.62527898  0.18392134     0.20600
H577        H  0.09129504  0.67865100  0.06241214     0.16700
H578        H  0.05247360  0.62751954  0.03013797     0.19200
H579        H  0.14533058  0.67623471  0.21656835     0.12500
C580        C  0.26567850  0.83514024  0.11574820     0.16400
C581        C  0.27786625  0.85299901  0.07884728    -0.32600
C582        C  0.30730938  0.86893399  0.07758347     0.20800
C583        C  0.32365421  0.86681176  0.11139285     0.03000
C584        C  0.31150714  0.84892961  0.14794091    -0.22400
C585        C  0.28221701  0.83332805  0.14947424     0.12200
S586        S  0.23051549  0.81389906  0.12366667    -0.06000
C587        C  0.23823903  0.80244896  0.17299202    -0.09500
C588        C  0.26668444  0.81482738  0.18246469    -0.26100
S589        S  0.35875203  0.88808475  0.10507885    -0.03300
C590        C  0.35167623  0.90043854  0.05653200    -0.16800
C591        C  0.32338308  0.88827797  0.04557955    -0.14800
H592        H  0.26499670  0.85453317  0.05255303     0.20600
H593        H  0.32436769  0.84745063  0.17430839     0.16700
H594        H  0.27561586  0.80984588  0.21108874     0.19200
H595        H  0.31507821  0.89373023  0.01663581     0.12500
C596        C  0.07751823  0.61819939  0.75952571     0.16400
C597        C  0.09391329  0.63004239  0.72108713    -0.32600
C598        C  0.11522717  0.65823339  0.72394128     0.20800
C599        C  0.11998881  0.67395597  0.76334135     0.03000
C600        C  0.10337774  0.66216495  0.80179904    -0.22400
C601        C  0.08198370  0.63388462  0.79896229     0.12200
S602        S  0.05134076  0.58417183  0.76282132    -0.06000
C603        C  0.04594547  0.59093425  0.81785798    -0.09500
C604        C  0.06370913  0.61834121  0.83270652    -0.26100
S605        S  0.14758661  0.70746496  0.76027296    -0.03300
C606        C  0.15294934  0.70030196  0.70519220    -0.16800
C607        C  0.13385145  0.67317318  0.69049210    -0.14800
H608        H  0.09040372  0.61770236  0.69043411     0.20600
H609        H  0.10716006  0.67439160  0.83264293     0.16700
H610        H  0.06353740  0.62629293  0.86631825     0.19200
H611        H  0.13405471  0.66440760  0.65757711     0.12500
C612        C  0.18599577  0.72896718  0.47403478     0.16400
C613        C  0.17690705  0.71889261  0.42982418    -0.32600
C614        C  0.19015210  0.73751783  0.39417826     0.20800
C615        C  0.21141823  0.76487317  0.40212249     0.03000
C616        C  0.22056400  0.77490554  0.44625043    -0.22400
C617        C  0.20733962  0.75631779  0.48184253     0.12200
S618        S  0.17260403  0.70997519  0.52207383    -0.06000
C619        C  0.19620454  0.73918852  0.55332632    -0.09500
C620        C  0.21319660  0.76233210  0.52692840    -0.26100
S621        S  0.22441442  0.78420523  0.35444087    -0.03300
C622        C  0.20086108  0.75517548  0.32278035    -0.16800
C623        C  0.18413503  0.73174643  0.34899174    -0.14800
H624        H  0.16017029  0.69753266  0.42348583     0.20600
H625        H  0.23719161  0.79630886  0.45259598     0.16700
H626        H  0.22880641  0.78282808  0.53965917     0.19200
H627        H  0.16836340  0.71136593  0.33631181     0.12500
C628        C  0.29512447  0.82176324  0.71882063     0.16400
C629        C  0.32316908  0.84292920  0.72553329    -0.32600
C630        C  0.32950346  0.86029764  0.76409756     0.20800
C631        C  0.30883665  0.85671413  0.79453719     0.03000
C632        C  0.28091183  0.83550204  0.78792958    -0.22400
C633        C  0.27459636  0.81817814  0.74948251     0.12200
S634        S  0.28281405  0.79899953  0.67363647    -0.06000
C635        C  0.24959094  0.78438536  0.69643416    -0.09500
C636        C  0.24855650  0.79679950  0.73698072    -0.26100
S637        S  0.32044718  0.88024754  0.83858127    -0.03300
C638        C  0.35354327  0.89519233  0.81587309    -0.16800
C639        C  0.35534287  0.88235623  0.77632434    -0.14800
H640        H  0.33928079  0.84589890  0.70154915     0.20600
H641        H  0.26472215  0.83276649  0.81159162     0.16700
H642        H  0.22960758  0.79107154  0.75580656     0.19200
H643        H  0.37440025  0.88904514  0.75726556     0.12500
C644        C  0.45155221  0.64198549  0.72965696     0.16400
C645        C  0.44655023  0.61502841  0.73877540    -0.32600
C646        C  0.45916838  0.61173116  0.77748012     0.20800
C647        C  0.47625989  0.63422846  0.80585865     0.03000
C648        C  0.48127660  0.66128420  0.79670046    -0.22400
C649        C  0.46839370  0.66455001  0.75808557     0.12200
S650        S  0.43797471  0.65012553  0.68442210    -0.06000
C651        C  0.45488030  0.68437456  0.70410022    -0.09500
C652        C  0.47032500  0.68898422  0.74363335    -0.26100
S653        S  0.48991391  0.62560324  0.85076374    -0.03300
C654        C  0.47228936  0.59143707  0.83077128    -0.16800
C655        C  0.45672149  0.58715081  0.79172502    -0.14800
H656        H  0.43332952  0.59734331  0.71667116     0.20600
H657        H  0.49457954  0.67900986  0.81876840     0.16700
H658        H  0.48256059  0.70919126  0.76064066     0.19200
H659        H  0.44453643  0.56711257  0.77424997     0.12500
C660        C  0.44334743  0.80945683  0.73726733     0.16400
C661        C  0.43801777  0.83126492  0.74730520    -0.32600
C662        C  0.45314620  0.84955348  0.78317731     0.20800
C663        C  0.47223181  0.84597283  0.80884042     0.03000
C664        C  0.47695064  0.82363874  0.79963020    -0.22400
C665        C  0.46228468  0.80571312  0.76301812     0.12200
S666        S  0.42941656  0.78689451  0.69209273    -0.06000
C667        C  0.44936360  0.77221928  0.70794453    -0.09500
C668        C  0.46557239  0.78417488  0.74665783    -0.26100
S669        S  0.48983313  0.87165996  0.84893721    -0.03300
C670        C  0.47149879  0.88744912  0.83028976    -0.16800
C671        C  0.45251408  0.87321812  0.79556821    -0.14800
H672        H  0.42353820  0.83454385  0.72683326     0.20600
H673        H  0.49219322  0.82098017  0.81904805     0.16700
H674        H  0.47990460  0.77817692  0.76103879     0.19200
H675        H  0.43946496  0.88024242  0.77937094     0.12500
C676        C  0.48340858  0.67351569  0.12294972     0.16400
C677        C  0.48799033  0.66073213  0.08496881    -0.32600
C678        C  0.48486365  0.63396251  0.09039679     0.20800
C679        C  0.47752560  0.62067468  0.13179332     0.03000
C680        C  0.47327338  0.63357966  0.16970329    -0.22400
C681        C  0.47629141  0.66021283  0.16424302     0.12200
S682        S  0.48509512  0.70534671  0.12334804    -0.06000
C683        C  0.47594007  0.70075726  0.17994517    -0.09500
C684        C  0.47206739  0.67561071  0.19693842    -0.26100
S685        S  0.47345295  0.58787747  0.13145023    -0.03300
C686        C  0.48185178  0.59194616  0.07496853    -0.16800
C687        C  0.48767608  0.61760793  0.05753012    -0.14800
H688        H  0.49334732  0.67099157  0.05261569     0.20600
H689        H  0.46743569  0.62313651  0.20180825     0.16700
H690        H  0.46571944  0.66837394  0.23096428     0.19200
H691        H  0.49294312  0.62363210  0.02262721     0.12500
C692        C  0.45511470  0.82136253  0.15937963     0.16400
C693        C  0.44866853  0.84255764  0.15067409    -0.32600
C694        C  0.46125237  0.85955358  0.11301072     0.20800
C695        C  0.47926348  0.85548458  0.08525466     0.03000
C696        C  0.48549582  0.83425090  0.09377696    -0.22400
C697        C  0.47305754  0.81740229  0.13135975     0.12200
S698        S  0.44317409  0.79916706  0.20424150    -0.06000
C699        C  0.46258718  0.78441581  0.18476831    -0.09500
C700        C  0.47730844  0.79627420  0.14554961    -0.26100
S701        S  0.49293774  0.87846138  0.04188650    -0.03300
C702        C  0.47429498  0.89388877  0.06118211    -0.16800
C703        C  0.45826289  0.88166099  0.09924710    -0.14800
H704        H  0.43479631  0.84588515  0.17255392     0.20600
H705        H  0.49970016  0.83119335  0.07230522     0.16700
H706        H  0.49117309  0.79038898  0.12896924     0.19200
H707        H  0.44538319  0.88871595  0.11610098     0.12500
C708        C  0.45013688  0.71623668  0.48029416     0.16400
C709        C  0.44834028  0.70543559  0.43643957    -0.32600
C710        C  0.45842751  0.72454818  0.40087912     0.20800
C711        C  0.46988188  0.75314391  0.40871545     0.03000
C712        C  0.47183062  0.76395421  0.45262153    -0.22400
C713        C  0.46159066  0.74482234  0.48815973     0.12200
S714        S  0.43930416  0.69653839  0.52781700    -0.06000
C715        C  0.45047195  0.72713409  0.55911696    -0.09500
C716        C  0.46171945  0.75121553  0.53321193    -0.26100
S717        S  0.47993859  0.77272977  0.36098294    -0.03300
C718        C  0.46831035  0.74204579  0.32975920    -0.16800
C719        C  0.45768787  0.71804942  0.35573686    -0.14800
H720        H  0.43931097  0.68306498  0.43028044     0.20600
H721        H  0.48074083  0.78634621  0.45877245     0.16700
H722        H  0.47044072  0.77243193  0.54662405     0.19200
H723        H  0.44887761  0.69688490  0.34229469     0.12500
loop_ 
_geom_bond_atom_site_label_1 
_geom_bond_atom_site_label_2 
_geom_bond_distance 
_geom_bond_site_symmetry_2 
_ccdc_geom_bond_type 
C1            C2   1.412       .  A
C1            C6   1.406       .  A
C1          C683   1.495       .  S
C2            C3   1.409       .  A
C2            H7   1.081       .  S
C3            C4   1.404       .  A
C3          C718   1.485       .  S
C4            C5   1.399       .  A
C4            H8   1.082       .  S
C5            C6   1.403       .  A
C5          C699   1.481       .  S
C6            H9   1.083       .  S
C10          C11   1.400       .  A
C10          C15   1.400       .  A
C10         C651   1.475       .  S
C11          C12   1.403       .  A
C11          H16   1.082       .  S
C12          C13   1.409       .  A
C12         C715   1.486       .  S
C13          C14   1.408       .  A
C13          H17   1.082       .  S
C14          C15   1.402       .  A
C14         C667   1.478       .  S
C15          H18   1.085       .  S
C19          C20   1.401       .  A
C19          C24   1.403       .  A
C19         C635   1.484       .  S
C20          C21   1.407       .  A
C20          H25   1.078       .  S
C21          C22   1.410       .  A
C21         C619   1.492       .  S
C22          C23   1.411       .  A
C22          H26   1.082       .  S
C23          C24   1.405       .  A
C23         C606   1.491       .  S
C24          H27   1.085       .  S
C28          C29   1.398       .  A
C28          C33   1.409       .  A
C28         C587   1.481       .  S
C29          C30   1.397       .  A
C29          H34   1.080       .  S
C30          C31   1.402       .  A
C30         C574   1.475       .  S
C31          C32   1.409       .  A
C31          H35   1.077       .  S
C32          C33   1.413       .  A
C32         C622   1.496       .  S
C33          H36   1.082       .  S
C37          C38   1.412       .  A
C37          C42   1.400       .  A
C37         C558   1.481       .  S
C38          C39   1.412       .  A
C38          H43   1.080       .  S
C39          C40   1.409       .  A
C39         C526   1.495       .  S
C40          C41   1.400       .  A
C40          H44   1.082       .  S
C41          C42   1.398       .  A
C41         C542   1.479       .  S
C42          H45   1.083       .  S
C46          C47   1.403       .  A
C46          C51   1.400       .  A
C46         C507   1.482       .  S
C47          C48   1.405       .  A
C47          H52   1.082       .  S
C48          C49   1.414       .  A
C48         C523   1.495       .  S
C49          C50   1.409       .  A
C49          H53   1.081       .  S
C50          C51   1.403       .  A
C50         C494   1.484       .  S
C51          H54   1.079       .  S
C55          C56   1.406       .  A
C55          C60   1.405       .  A
C55         C475   1.481       .  S
C56          C57   1.405       .  A
C56          H61   1.083       .  S
C57          C58   1.398       .  A
C57         C459   1.480       .  S
C58          C59   1.404       .  A
C58          H62   1.080       .  S
C59          C60   1.408       .  A
C59         C446   1.487       .  S
C60          H63   1.079       .  S
C64          C65   1.402       .  A
C64          C69   1.403       .  A
C64         C430   1.479       .  S
C65          C66   1.406       .  A
C65          H70   1.082       .  S
C66          C67   1.406       .  A
C66         C462   1.485       .  S
C67          C68   1.405       .  A
C67          H71   1.083       .  S
C68          C69   1.401       .  A
C68         C414   1.477       .  S
C69          H72   1.085       .  S
C73          C74   1.398       .  A
C73          C78   1.397       .  A
C73         C363   1.472       .  S
C74          C75   1.408       .  A
C74          H79   1.081       .  S
C75          C76   1.414       .  A
C75         C382   1.495       .  S
C76          C77   1.410       .  A
C76          H80   1.081       .  S
C77          C78   1.399       .  A
C77         C395   1.480       .  S
C78          H81   1.084       .  S
C82          C83   1.400       .  A
C82          C87   1.404       .  A
C82         C334   1.478       .  S
C83          C84   1.398       .  A
C83          H88   1.080       .  S
C84          C85   1.404       .  A
C84         C347   1.476       .  S
C85          C86   1.406       .  A
C85          H89   1.085       .  S
C86          C87   1.409       .  A
C86         C379   1.487       .  S
C87          H90   1.082       .  S
C91          C92   1.400       .  A
C91          C96   1.408       .  A
C91         C318   1.482       .  S
C92          C93   1.398       .  A
C92          H97   1.087       .  S
C93          C94   1.402       .  A
C93         C299   1.475       .  S
C94          C95   1.409       .  A
C94          H98   1.081       .  S
C95          C96   1.410       .  A
C95         C286   1.489       .  S
C96          H99   1.082       .  S
C100        C101   1.408       .  A
C100        C105   1.401       .  A
C100        C267   1.482       .  S
C101        C102   1.409       .  A
C101        H106   1.081       .  S
C102        C103   1.407       .  A
C102        C283   1.490       .  S
C103        C104   1.404       .  A
C103        H107   1.081       .  S
C104        C105   1.401       .  A
C104        C251   1.484       .  S
C105        H108   1.081       .  S
N109        N110   1.316       .  A
N109        N115   1.316       .  A
N109       Mn138   2.193       .  S
N110        C117   1.350       .  A
N111        N113   1.314       .  A
N111        N112   1.323       .  A
N111       Mn127   2.214       .  S
N112        C118   1.356       .  A
N113        N114   1.316       .  A
N113       Mn138   2.171       .  S
N114        C118   1.346       .  A
N115        N116   1.321       .  A
N115       Mn127   2.196       .  S
N116        C117   1.353       .  A
C117        C654   1.463       .  S
C118        C331   1.465       .  S
N119        N125   1.317   1_554  A
N119        N120   1.317       .  A
N119       Mn149   2.193       .  S
N120        C128   1.350       .  A
N121        N122   1.324   1_556  A
N121        N123   1.315   1_556  A
N121       Mn127   2.211       .  S
N122        C129   1.355       .  A
N123        N124   1.318       .  A
N123       Mn149   2.193       .  S
N124        C129   1.350       .  A
N125        N126   1.320       .  A
N125       Mn127   2.202       .  S
N126        C128   1.353   1_556  A
Mn127      Cl151   2.560       .  S
C128        C366   1.462       .  S
C129        C686   1.471       .  S
N130        N131   1.319       .  A
N130        N136   1.316       .  A
N130       Mn138   2.197       .  S
N131        C139   1.351       .  A
N132        N134   1.314       .  A
N132        N133   1.324       .  A
N132       Mn150   2.214       .  S
N133        C140   1.357       .  A
N134        N135   1.317       .  A
N134       Mn138   2.176       .  S
N135        C140   1.347       .  A
N136        N137   1.320       .  A
N136       Mn150   2.199       .  S
N137        C139   1.352       .  A
Mn138      Cl151   2.527       .  S
C139        C302   1.464       .  S
C140        C491   1.470       .  S
N141        N142   1.319       .  A
N141        N147   1.317   1_554  A
N141       Mn149   2.201       .  S
N142        C152   1.352       .  A
N143        N144   1.323   1_556  A
N143        N145   1.315   1_556  A
N143       Mn150   2.211       .  S
N144        C153   1.355       .  A
N145        N146   1.317       .  A
N145       Mn149   2.185       .  S
N146        C153   1.349       .  A
N147        N148   1.319   1_556  A
N147       Mn150   2.198       .  S
N148        C152   1.351       .  A
Mn149      Cl151   2.531   1_554  S
Mn150      Cl151   2.559       .  S
C152        C539   1.463       .  S
C153        C254   1.468       .  S
N154        N155   1.317   1_655  A
N154        N160   1.315       .  A
N154       Mn183   2.190       .  S
N155        C162   1.349       .  A
N156        N158   1.315   1_556  A
N156        N157   1.326   1_556  A
N156       Mn172   2.228       .  S
N157        C163   1.358       .  A
N158        N159   1.316       .  A
N158       Mn183   2.184       .  S
N159        C163   1.348       .  A
N160        N161   1.321   1_655  A
N160       Mn172   2.204   1_554  S
N161        C162   1.354       .  A
C162        C571   1.464       .  S
C163        C398   1.473       .  S
N164        N170   1.316       .  A
N164        N165   1.316       .  A
N164       Mn194   2.187       .  S
N165        C173   1.349       .  A
N166        N167   1.328   1_655  A
N166        N168   1.316       .  A
N166       Mn172   2.232       .  S
N167        C174   1.360       .  A
N168        N169   1.315   1_655  A
N168       Mn194   2.186       .  S
N169        C174   1.347       .  A
N170        N171   1.321       .  A
N170       Mn172   2.197       .  S
N171        C173   1.353       .  A
Mn172      Cl196   2.567       .  S
C173        C350   1.460       .  S
C174        C603   1.475       .  S
N175        N176   1.318       .  A
N175        N181   1.315   1_554  A
N175       Mn183   2.191       .  S
N176        C184   1.351       .  A
N177        N179   1.314       .  A
N177        N178   1.324   1_655  A
N177       Mn195   2.210   1_554  S
N178        C185   1.356       .  A
N179        N180   1.316   1_655  A
N179       Mn183   2.181       .  S
N180        C185   1.348       .  A
N181        N182   1.320   1_556  A
N181       Mn195   2.198       .  S
N182        C184   1.352       .  A
Mn183      Cl196   2.527   1_554  S
C184        C427   1.464       .  S
C185        C555   1.466       .  S
N186        N187   1.318   1_655  A
N186        N192   1.315       .  A
N186       Mn194   2.192       .  S
N187        C197   1.351       .  A
N188        N189   1.323       .  A
N188        N190   1.315       .  A
N188       Mn195   2.206       .  S
N189        C198   1.354       .  A
N190        N191   1.319       .  A
N190       Mn194   2.200       .  S
N191        C198   1.352       .  A
N192        N193   1.319   1_655  A
N192       Mn195   2.196       .  S
N193        C197   1.352       .  A
Mn194      Cl196   2.524       .  S
Mn195      Cl196   2.559       .  S
C197        C510   1.463       .  S
C198        C478   1.472       .  S
N199        N200   1.321       .  A
N199        N205   1.314   1_554  A
N199       Mn228   2.201       .  S
N200        C207   1.353       .  A
N201        N203   1.316   1_556  A
N201        N202   1.323   1_556  A
N201       Mn217   2.207   1_545  S
N202        C208   1.355       .  A
N203        N204   1.318       .  A
N203       Mn228   2.196   1_545  S
N204        C208   1.350       .  A
N205        N206   1.319   1_556  A
N205       Mn217   2.195       .  S
N206        C207   1.352       .  A
C207        C702   1.468       .  S
C208        C411   1.469       .  S
N209        N215   1.316       .  A
N209        N210   1.320       .  A
N209       Mn239   2.201   1_545  S
N210        C218   1.352       .  A
N211        N212   1.322       .  A
N211        N213   1.315       .  A
N211       Mn217   2.203       .  S
N212        C219   1.353       .  A
N213        N214   1.317       .  A
N213       Mn239   2.183       .  S
N214        C219   1.350       .  A
N215        N216   1.319       .  A
N215       Mn217   2.194   1_545  S
N216        C218   1.351       .  A
Mn217      Cl241   2.557       .  S
C218        C443   1.463       .  S
C219        C670   1.464       .  S
N220        N221   1.317       .  A
N220        N226   1.317   1_554  A
N220       Mn228   2.199   1_545  S
N221        C229   1.349       .  A
N222        N224   1.316   1_556  A
N222        N223   1.326       .  A
N222       Mn240   2.219       .  S
N223        C230   1.358   1_556  A
N224        N225   1.314       .  A
N224       Mn228   2.182       .  S
N225        C230   1.347       .  A
N226        N227   1.324       .  A
N226       Mn240   2.208   1_545  S
N227        C229   1.355   1_556  A
Mn228      Cl241   2.526   1_554  S
C229        C270   1.469       .  S
C230        C590   1.469       .  S
N231        N232   1.322       .  A
N231        N237   1.316       .  A
N231       Mn239   2.200       .  S
N232        C242   1.353       .  A
N233        N234   1.326       .  A
N233        N235   1.317       .  A
N233       Mn240   2.228   1_545  S
N234        C243   1.358       .  A
N235        N236   1.315       .  A
N235       Mn239   2.183   1_545  S
N236        C243   1.347       .  A
N237        N238   1.320       .  A
N237       Mn240   2.204       .  S
N238        C242   1.352       .  A
Mn239      Cl241   2.538       .  S
Mn240      Cl241   2.565       .  S
C242        C638   1.470       .  S
C243        C315   1.470       .  S
C244        C249   1.386       .  A
C244        C245   1.402       .  A
C244        S250   1.704       .  A
C245        C246   1.402       .  A
C245        H256   1.081       .  S
C246        C255   1.371       .  A
C246        C247   1.387       .  A
C247        C248   1.400       .  A
C247        S253   1.702       .  A
C248        C249   1.400       .  A
C248        H257   1.081       .  S
C249        C252   1.368       .  A
S250        C251   1.728       .  A
C251        C252   1.389       .  A
C252        H258   1.082       .  S
S253        C254   1.722       .  A
C254        C255   1.385       .  A
C255        H259   1.082       .  S
C260        C265   1.386       .  A
C260        C261   1.405       .  A
C260        S266   1.706       .  A
C261        C262   1.405       .  A
C261        H272   1.081       .  S
C262        C271   1.375       .  A
C262        C263   1.387       .  A
C263        C264   1.398       .  A
C263        S269   1.700       .  A
C264        C265   1.398       .  A
C264        H273   1.081       .  S
C265        C268   1.369       .  A
S266        C267   1.729       .  A
C267        C268   1.386       .  A
C268        H274   1.082       .  S
S269        C270   1.720       .  A
C270        C271   1.388       .  A
C271        H275   1.082       .  S
C276        C281   1.385       .  A
C276        C277   1.399       .  A
C276        S282   1.702       .  A
C277        C278   1.400       .  A
C277        H288   1.085       .  S
C278        C287   1.368       .  A
C278        C279   1.385       .  A
C279        C280   1.404       .  A
C279        S285   1.709       .  A
C280        C281   1.405       .  A
C280        H289   1.084       .  S
C281        C284   1.374       .  A
S282        C283   1.728       .  A
C283        C284   1.393       .  A
C284        H290   1.082       .  S
S285        C286   1.729       .  A
C286        C287   1.390       .  A
C287        H291   1.084       .  S
C292        C297   1.387       .  A
C292        C293   1.401       .  A
C292        S298   1.707       .  A
C293        C294   1.402       .  A
C293        H304   1.080       .  S
C294        C303   1.368       .  A
C294        C295   1.387       .  A
C295        C296   1.398       .  A
C295        S301   1.705       .  A
C296        C297   1.400       .  A
C296        H305   1.080       .  S
C297        C300   1.366       .  A
S298        C299   1.723       .  A
C299        C300   1.387       .  A
C300        H306   1.081       .  S
S301        C302   1.719       .  A
C302        C303   1.385       .  A
C303        H307   1.081       .  S
C308        C313   1.388       .  A
C308        C309   1.401       .  A
C308        S314   1.701       .  A
C309        C310   1.400       .  A
C309        H320   1.083       .  S
C310        C319   1.372       .  A
C310        C311   1.386       .  A
C311        C312   1.402       .  A
C311        S317   1.702       .  A
C312        C313   1.401       .  A
C312        H321   1.082       .  S
C313        C316   1.374       .  A
S314        C315   1.723       .  A
C315        C316   1.385       .  A
C316        H322   1.083       .  S
S317        C318   1.727       .  A
C318        C319   1.387       .  A
C319        H323   1.083       .  S
C324        C329   1.388       .  A
C324        C325   1.401       .  A
C324        S330   1.703       .  A
C325        C326   1.401       .  A
C325        H336   1.085       .  S
C326        C335   1.370       .  A
C326        C327   1.387       .  A
C327        C328   1.398       .  A
C327        S333   1.700       .  A
C328        C329   1.398       .  A
C328        H337   1.085       .  S
C329        C332   1.368       .  A
S330        C331   1.724       .  A
C331        C332   1.381       .  A
C332        H338   1.085       .  S
S333        C334   1.725       .  A
C334        C335   1.388       .  A
C335        H339   1.084       .  S
C340        C345   1.387       .  A
C340        C341   1.401       .  A
C340        S346   1.703       .  A
C341        C342   1.401       .  A
C341        H352   1.080       .  S
C342        C351   1.369       .  A
C342        C343   1.388       .  A
C343        C344   1.396       .  A
C343        S349   1.699       .  A
C344        C345   1.397       .  A
C344        H353   1.081       .  S
C345        C348   1.365       .  A
S346        C347   1.727       .  A
C347        C348   1.384       .  A
C348        H354   1.082       .  S
S349        C350   1.718       .  A
C350        C351   1.384       .  A
C351        H355   1.083       .  S
C356        C361   1.387       .  A
C356        C357   1.398       .  A
C356        S362   1.704       .  A
C357        C358   1.400       .  A
C357        H368   1.082       .  S
C358        C367   1.364       .  A
C358        C359   1.387       .  A
C359        C360   1.398       .  A
C359        S365   1.706       .  A
C360        C361   1.400       .  A
C360        H369   1.082       .  S
C361        C364   1.365       .  A
S362        C363   1.723       .  A
C363        C364   1.385       .  A
C364        H370   1.081       .  S
S365        C366   1.720       .  A
C366        C367   1.383       .  A
C367        H371   1.082       .  S
C372        C377   1.385       .  A
C372        C373   1.404       .  A
C372        S378   1.706       .  A
C373        C374   1.404       .  A
C373        H384   1.081       .  S
C374        C383   1.374       .  A
C374        C375   1.384       .  A
C375        C376   1.400       .  A
C375        S381   1.699       .  A
C376        C377   1.400       .  A
C376        H385   1.081       .  S
C377        C380   1.369       .  A
S378        C379   1.729       .  A
C379        C380   1.389       .  A
C380        H386   1.081       .  S
S381        C382   1.731       .  A
C382        C383   1.393       .  A
C383        H387   1.081       .  S
C388        C393   1.387       .  A
C388        C389   1.404       .  A
C388        S394   1.705       .  A
C389        C390   1.403       .  A
C389        H400   1.084       .  S
C390        C399   1.376       .  A
C390        C391   1.387       .  A
C391        C392   1.401       .  A
C391        S397   1.702       .  A
C392        C393   1.400       .  A
C392        H401   1.083       .  S
C393        C396   1.372       .  A
S394        C395   1.728       .  A
C395        C396   1.386       .  A
C396        H402   1.084       .  S
S397        C398   1.724       .  A
C398        C399   1.387       .  A
C399        H403   1.084       .  S
C404        C409   1.388       .  A
C404        C405   1.398       .  A
C404        S410   1.701       .  A
C405        C406   1.398       .  A
C405        H416   1.082       .  S
C406        C415   1.367       .  A
C406        C407   1.387       .  A
C407        C408   1.404       .  A
C407        S413   1.708       .  A
C408        C409   1.404       .  A
C408        H417   1.082       .  S
C409        C412   1.374       .  A
S410        C411   1.720       .  A
C411        C412   1.387       .  A
C412        H418   1.082       .  S
S413        C414   1.727       .  A
C414        C415   1.384       .  A
C415        H419   1.083       .  S
C420        C425   1.387       .  A
C420        C421   1.398       .  A
C420        S426   1.705       .  A
C421        C422   1.400       .  A
C421        H432   1.084       .  S
C422        C431   1.366       .  A
C422        C423   1.386       .  A
C423        C424   1.400       .  A
C423        S429   1.706       .  A
C424        C425   1.402       .  A
C424        H433   1.084       .  S
C425        C428   1.367       .  A
S426        C427   1.720       .  A
C427        C428   1.385       .  A
C428        H434   1.083       .  S
S429        C430   1.727       .  A
C430        C431   1.386       .  A
C431        H435   1.084       .  S
C436        C441   1.388       .  A
C436        C437   1.401       .  A
C436        S442   1.705       .  A
C437        C438   1.401       .  A
C437        H448   1.084       .  S
C438        C447   1.370       .  A
C438        C439   1.385       .  A
C439        C440   1.398       .  A
C439        S445   1.697       .  A
C440        C441   1.398       .  A
C440        H449   1.084       .  S
C441        C444   1.367       .  A
S442        C443   1.721       .  A
C443        C444   1.383       .  A
C444        H450   1.083       .  S
S445        C446   1.729       .  A
C446        C447   1.390       .  A
C447        H451   1.081       .  S
C452        C457   1.386       .  A
C452        C453   1.404       .  A
C452        S458   1.706       .  A
C453        C454   1.404       .  A
C453        H464   1.085       .  S
C454        C463   1.372       .  A
C454        C455   1.386       .  A
C455        C456   1.398       .  A
C455        S461   1.700       .  A
C456        C457   1.398       .  A
C456        H465   1.085       .  S
C457        C460   1.368       .  A
S458        C459   1.729       .  A
C459        C460   1.384       .  A
C460        H466   1.084       .  S
S461        C462   1.725       .  A
C462        C463   1.392       .  A
C463        H467   1.084       .  S
C468        C473   1.386       .  A
C468        C469   1.406       .  A
C468        S474   1.710       .  A
C469        C470   1.406       .  A
C469        H480   1.081       .  S
C470        C479   1.375       .  A
C470        C471   1.387       .  A
C471        C472   1.400       .  A
C471        S477   1.703       .  A
C472        C473   1.400       .  A
C472        H481   1.081       .  S
C473        C476   1.370       .  A
S474        C475   1.727       .  A
C475        C476   1.386       .  A
C476        H482   1.082       .  S
S477        C478   1.721       .  A
C478        C479   1.389       .  A
C479        H483   1.083       .  S
C484        C489   1.387       .  A
C484        C485   1.403       .  A
C484        S490   1.705       .  A
C485        C486   1.403       .  A
C485        H496   1.086       .  S
C486        C495   1.374       .  A
C486        C487   1.387       .  A
C487        C488   1.401       .  A
C487        S493   1.702       .  A
C488        C489   1.400       .  A
C488        H497   1.085       .  S
C489        C492   1.372       .  A
S490        C491   1.725       .  A
C491        C492   1.384       .  A
C492        H498   1.085       .  S
S493        C494   1.726       .  A
C494        C495   1.389       .  A
C495        H499   1.084       .  S
C500        C505   1.385       .  A
C500        C501   1.401       .  A
C500        S506   1.706       .  A
C501        C502   1.403       .  A
C501        H512   1.078       .  S
C502        C511   1.368       .  A
C502        C503   1.387       .  A
C503        C504   1.398       .  A
C503        S509   1.703       .  A
C504        C505   1.400       .  A
C504        H513   1.077       .  S
C505        C508   1.364       .  A
S506        C507   1.728       .  A
C507        C508   1.388       .  A
C508        H514   1.078       .  S
S509        C510   1.720       .  A
C510        C511   1.385       .  A
C511        H515   1.081       .  S
C516        C521   1.384       .  A
C516        C517   1.407       .  A
C516        S522   1.706       .  A
C517        C518   1.407       .  A
C517        H528   1.082       .  S
C518        C527   1.379       .  A
C518        C519   1.385       .  A
C519        C520   1.399       .  A
C519        S525   1.697       .  A
C520        C521   1.399       .  A
C520        H529   1.082       .  S
C521        C524   1.371       .  A
S522        C523   1.735       .  A
C523        C524   1.389       .  A
C524        H530   1.081       .  S
S525        C526   1.729       .  A
C526        C527   1.395       .  A
C527        H531   1.080       .  S
C532        C537   1.388       .  A
C532        C533   1.398       .  A
C532        S538   1.704       .  A
C533        C534   1.400       .  A
C533        H544   1.084       .  S
C534        C543   1.365       .  A
C534        C535   1.386       .  A
C535        C536   1.400       .  A
C535        S541   1.705       .  A
C536        C537   1.401       .  A
C536        H545   1.083       .  S
C537        C540   1.367       .  A
S538        C539   1.720       .  A
C539        C540   1.384       .  A
C540        H546   1.082       .  S
S541        C542   1.725       .  A
C542        C543   1.387       .  A
C543        H547   1.083       .  S
C548        C553   1.388       .  A
C548        C549   1.400       .  A
C548        S554   1.700       .  A
C549        C550   1.399       .  A
C549        H560   1.080       .  S
C550        C559   1.371       .  A
C550        C551   1.387       .  A
C551        C552   1.403       .  A
C551        S557   1.702       .  A
C552        C553   1.402       .  A
C552        H561   1.080       .  S
C553        C556   1.373       .  A
S554        C555   1.721       .  A
C555        C556   1.385       .  A
C556        H562   1.082       .  S
S557        C558   1.729       .  A
C558        C559   1.385       .  A
C559        H563   1.082       .  S
C564        C569   1.388       .  A
C564        C565   1.399       .  A
C564        S570   1.703       .  A
C565        C566   1.400       .  A
C565        H576   1.083       .  S
C566        C575   1.367       .  A
C566        C567   1.387       .  A
C567        C568   1.399       .  A
C567        S573   1.702       .  A
C568        C569   1.400       .  A
C568        H577   1.084       .  S
C569        C572   1.368       .  A
S570        C571   1.722       .  A
C571        C572   1.383       .  A
C572        H578   1.084       .  S
S573        C574   1.725       .  A
C574        C575   1.386       .  A
C575        H579   1.083       .  S
C580        C585   1.386       .  A
C580        C581   1.405       .  A
C580        S586   1.705       .  A
C581        C582   1.404       .  A
C581        H592   1.083       .  S
C582        C591   1.377       .  A
C582        C583   1.388       .  A
C583        C584   1.398       .  A
C583        S589   1.696       .  A
C584        C585   1.397       .  A
C584        H593   1.083       .  S
C585        C588   1.369       .  A
S586        C587   1.730       .  A
C587        C588   1.385       .  A
C588        H594   1.083       .  S
S589        C590   1.721       .  A
C590        C591   1.387       .  A
C591        H595   1.083       .  S
C596        C601   1.387       .  A
C596        C597   1.401       .  A
C596        S602   1.700       .  A
C597        C598   1.400       .  A
C597        H608   1.082       .  S
C598        C607   1.373       .  A
C598        C599   1.385       .  A
C599        C600   1.406       .  A
C599        S605   1.706       .  A
C600        C601   1.405       .  A
C600        H609   1.082       .  S
C601        C604   1.379       .  A
S602        C603   1.724       .  A
C603        C604   1.388       .  A
C604        H610   1.082       .  S
S605        C606   1.731       .  A
C606        C607   1.389       .  A
C607        H611   1.083       .  S
C612        C617   1.384       .  A
C612        C613   1.403       .  A
C612        S618   1.709       .  A
C613        C614   1.405       .  A
C613        H624   1.083       .  S
C614        C623   1.370       .  A
C614        C615   1.384       .  A
C615        C616   1.400       .  A
C615        S621   1.706       .  A
C616        C617   1.403       .  A
C616        H625   1.083       .  S
C617        C620   1.368       .  A
S618        C619   1.729       .  A
C619        C620   1.393       .  A
C620        H626   1.081       .  S
S621        C622   1.729       .  A
C622        C623   1.396       .  A
C623        H627   1.079       .  S
C628        C633   1.386       .  A
C628        C629   1.403       .  A
C628        S634   1.707       .  A
C629        C630   1.404       .  A
C629        H640   1.084       .  S
C630        C639   1.372       .  A
C630        C631   1.387       .  A
C631        C632   1.399       .  A
C631        S637   1.704       .  A
C632        C633   1.400       .  A
C632        H641   1.084       .  S
C633        C636   1.368       .  A
S634        C635   1.728       .  A
C635        C636   1.387       .  A
C636        H642   1.083       .  S
S637        C638   1.721       .  A
C638        C639   1.387       .  A
C639        H643   1.083       .  S
C644        C649   1.387       .  A
C644        C645   1.396       .  A
C644        S650   1.701       .  A
C645        C646   1.397       .  A
C645        H656   1.084       .  S
C646        C655   1.362       .  A
C646        C647   1.387       .  A
C647        C648   1.401       .  A
C647        S653   1.709       .  A
C648        C649   1.403       .  A
C648        H657   1.086       .  S
C649        C652   1.368       .  A
S650        C651   1.722       .  A
C651        C652   1.388       .  A
C652        H658   1.085       .  S
S653        C654   1.722       .  A
C654        C655   1.382       .  A
C655        H659   1.084       .  S
C660        C665   1.387       .  A
C660        C661   1.398       .  A
C660        S666   1.707       .  A
C661        C662   1.400       .  A
C661        H672   1.085       .  S
C662        C671   1.364       .  A
C662        C663   1.387       .  A
C663        C664   1.400       .  A
C663        S669   1.709       .  A
C664        C665   1.403       .  A
C664        H673   1.085       .  S
C665        C668   1.367       .  A
S666        C667   1.723       .  A
C667        C668   1.388       .  A
C668        H674   1.083       .  S
S669        C670   1.721       .  A
C670        C671   1.384       .  A
C671        H675   1.084       .  S
C676        C681   1.385       .  A
C676        C677   1.406       .  A
C676        S682   1.706       .  A
C677        C678   1.405       .  A
C677        H688   1.081       .  S
C678        C687   1.376       .  A
C678        C679   1.387       .  A
C679        C680   1.400       .  A
C679        S685   1.702       .  A
C680        C681   1.400       .  A
C680        H689   1.079       .  S
C681        C684   1.372       .  A
S682        C683   1.733       .  A
C683        C684   1.390       .  A
C684        H690   1.079       .  S
S685        C686   1.721       .  A
C686        C687   1.388       .  A
C687        H691   1.083       .  S
C692        C697   1.386       .  A
C692        C693   1.404       .  A
C692        S698   1.710       .  A
C693        C694   1.405       .  A
C693        H704   1.083       .  S
C694        C703   1.372       .  A
C694        C695   1.387       .  A
C695        C696   1.397       .  A
C695        S701   1.703       .  A
C696        C697   1.398       .  A
C696        H705   1.083       .  S
C697        C700   1.366       .  A
S698        C699   1.728       .  A
C699        C700   1.385       .  A
C700        H706   1.082       .  S
S701        C702   1.720       .  A
C702        C703   1.388       .  A
C703        H707   1.083       .  S
C708        C713   1.386       .  A
C708        C709   1.402       .  A
C708        S714   1.703       .  A
C709        C710   1.402       .  A
C709        H720   1.084       .  S
C710        C719   1.372       .  A
C710        C711   1.386       .  A
C711        C712   1.402       .  A
C711        S717   1.704       .  A
C712        C713   1.402       .  A
C712        H721   1.086       .  S
C713        C716   1.372       .  A
S714        C715   1.728       .  A
C715        C716   1.389       .  A
C716        H722   1.084       .  S
S717        C718   1.728       .  A
C718        C719   1.389       .  A
C719        H723   1.082       .  S
