geometry optimzed in LAMMPS
_audit_creation_date              2020-11-30 
_audit_creation_method            'lammps2cif' 
_symmetry_space_group_name_H-M    'P1' 
_symmetry_Int_Tables_number       1 
_symmetry_cell_setting            triclinic 
loop_ 
_symmetry_equiv_pos_as_xyz 
  x,y,z 
_cell_length_a                    41.07211896477861 
_cell_length_b                    41.498520933944214 
_cell_length_c                    41.38832995245186 
_cell_angle_alpha                 89.68129957417216 
_cell_angle_beta                  88.03774940787109 
_cell_angle_gamma                 90.69831966029122 
loop_ 
_atom_site_label 
_atom_site_type_symbol 
_atom_site_fract_x 
_atom_site_fract_y 
_atom_site_fract_z 
_atom_site_charge 
O1          O  0.44933999  0.08219731  0.05595972    -0.86570
O2          O  0.51930972  0.40373252  0.02900790    -0.86740
O3          O  0.45601072  0.47577073  0.09261054    -0.88410
O4          O  0.05281489  0.02400876  0.09865567    -0.87160
O5          O  0.09578677  0.01808985  0.06323080    -0.86750
O6          O  0.41768914  0.47973685  0.05353108    -0.88120
O7          O  0.52661385  0.44978976  0.05255619    -0.86600
O8          O  0.46108757  0.04116811  0.08924904    -0.86190
Zr9        Zr  0.50188934  0.99869175  0.07256521     2.84310
O10         O  0.04678569  0.48092438  0.03550290    -1.08160
O11         O  0.46774004  0.02830229  0.04187606    -1.08890
C12         C  0.44562698  0.06757628  0.08258592     1.06540
C13         C  0.51472611  0.42115861  0.05326856     1.06480
C14         C  0.42694065  0.47037456  0.08223812     1.09460
C15         C  0.08379856  0.02712181  0.09086631     1.07240
H16         H  0.46826594  0.45342919  0.03766235     0.32800
O17         O  0.48187602  0.47049331  0.02913437    -1.29110
H18         H  0.04316630  0.06276545  0.05958856     0.32470
O19         O  0.03648330  0.04910030  0.04228136    -1.30790
O20         O  0.04564778  0.43097140  0.44616806    -0.86570
O21         O  0.03779675  0.10630618  0.46875272    -0.88060
O22         O  0.42422940  0.44763017  0.48362027    -0.86640
O23         O  0.11328515  0.48140288  0.99442182    -0.86690
O24         O  0.08275689  0.08690101  0.00853146    -0.86400
O25         O  0.42533477  0.05235185  0.49030543    -0.86210
O26         O  0.45315442  0.51987735  0.41849628    -0.86580
O27         O  0.07984520  0.02545777  0.41650955    -0.86040
O28         O  0.41209084  0.51215814  0.45677018    -0.87110
O29         O  0.10123073  0.05359151  0.45743361    -0.86260
O30         O  0.47535989  0.41817705  0.97533895    -0.86660
O31         O  0.45922787  0.09606823  0.48288055    -0.86380
O32         O  0.03831964  0.11112570  0.53789483    -0.86030
O33         O  0.07868692  0.43857657  0.99065549    -0.86440
O34         O  0.02660319  0.46870491  0.41244041    -0.86740
O35         O  0.04108902  0.07117070  0.42746922    -0.88080
Zr36       Zr  0.02270354  0.44713574  0.99670154     2.83100
Zr37       Zr  0.50371598  0.07147435  0.50525600     2.83500
Zr38       Zr  0.43922437  0.49894718  0.50542774     2.84090
Zr39       Zr  0.07800956  0.02745459  0.00751381     2.83360
Zr40       Zr  0.00995697  0.51609719  0.44261357     2.84220
O41         O  0.04208867  0.04803980  0.47809769    -1.08650
O42         O  0.47541773  0.47576425  0.46644069    -1.08150
C43         C  0.04008369  0.44156034  0.41806332     1.06510
C44         C  0.04580225  0.09891408  0.43981119     1.09130
C45         C  0.43924386  0.42201415  0.47462511     1.06680
C46         C  0.10685804  0.45171054  0.98869809     1.07040
C47         C  0.07037957  0.10686819  0.02903434     1.06630
C48         C  0.43136647  0.08260987  0.48313391     1.06180
C49         C  0.42301954  0.51958166  0.42825070     1.06600
C50         C  0.09962675  0.04654885  0.42693667     1.06120
H51         H  0.46850038  0.04809296  0.45235066     0.32790
O52         O  0.47969312  0.03619459  0.46853059    -1.29750
H53         H  0.06682004  0.48643160  0.45452181     0.32820
O54         O  0.05018961  0.49219602  0.47025281    -1.31130
C55         C  0.00550556  0.13280326  0.18618699     0.03050
C56         C  0.97304203  0.14237181  0.19365609    -0.13100
C57         C  0.95367072  0.15504597  0.16892270     0.00550
C58         C  0.96945222  0.17701833  0.14812731    -0.11630
C59         C  0.00232710  0.17272932  0.13837430     0.03040
C60         C  0.02063684  0.14933027  0.15749809    -0.11050
H61         H  0.96009904  0.12985762  0.21336747     0.08630
H62         H  0.95432773  0.19175661  0.13333938     0.06160
H63         H  0.04426774  0.14196406  0.14824423     0.06010
O64         O  0.49186063  0.07791520  0.19543665    -0.75370
O65         O  0.03857405  0.09075315  0.21767626    -0.54280
C66         C  0.01330121  0.09836533  0.20102494     0.78360
O67         O  0.41528085  0.98727107  0.30040886    -0.59970
O68         O  0.39870995  0.44050310  0.28242666    -0.53000
C69         C  0.39145763  0.46614984  0.29799419     0.70370
O70         O  0.47969426  0.08514826  0.30552486    -0.74530
O71         O  0.02585253  0.08942068  0.28018468    -0.55100
C72         C  0.00015136  0.10289971  0.29434713     0.76370
O73         O  0.41415670  0.00944844  0.18492662    -0.59680
O74         O  0.40453545  0.46101393  0.21507407    -0.52800
C75         C  0.39465721  0.48414469  0.19560271     0.72960
Zr76       Zr  0.46949771  0.02218264  0.20171163     2.54710
O77         O  0.42175613  0.05466431  0.21183090    -0.80240
O78         O  0.48076028  0.01390057  0.14542861    -0.93660
Zr79       Zr  0.46056757  0.02908197  0.29272607     2.64680
O80         O  0.41788646  0.06610151  0.27632984    -0.98610
O81         O  0.46104918  0.05890539  0.34442088    -0.80680
O82         O  0.48924552  0.04835053  0.24674720    -0.84030
O83         O  0.44203409  0.00102110  0.24768717    -2.18740
O84         O  0.01621999  0.39370837  0.19925378    -0.67420
O85         O  0.46552383  0.39141600  0.22151923    -0.51990
C86         C  0.48923694  0.37832654  0.20423696     0.71350
O87         O  0.08680650  0.47331063  0.30908715    -0.60330
O88         O  0.08984331  0.02470562  0.28704114    -0.52310
C89         C  0.09912947  0.00245150  0.30764173     0.73150
O90         O  0.00188811  0.40873345  0.31738607    -0.71730
O91         O  0.45597678  0.39577685  0.28909095    -0.50400
C92         C  0.47839152  0.38908521  0.30937630     0.74530
O93         O  0.08845791  0.47368587  0.19245477    -0.67060
O94         O  0.09049634  0.02316263  0.21492068    -0.54250
C95         C  0.10243222  0.99901640  0.19844624     0.72910
Zr96       Zr  0.03350840  0.45274327  0.20544885     2.77540
O97         O  0.08014553  0.41709213  0.20087049    -0.97800
O98         O  0.02357118  0.45850973  0.14827361    -0.78630
Zr99       Zr  0.02895183  0.45998355  0.29915833     2.70070
O100        O  0.06868270  0.41806399  0.30608805    -0.79870
O101        O  0.02431524  0.48122724  0.35183426    -0.98960
Zr102      Zr  0.04302302  0.03821254  0.25006109     2.21500
Zr103      Zr  0.45091486  0.44255220  0.25118254     2.11130
O104        O  0.00844476  0.43344644  0.25393688    -2.47640
O105        O  0.05278268  0.48083492  0.25115393    -0.79670
O106        O  0.47762032  0.46440406  0.20366399    -0.71860
O107        O  0.01646896  0.01751224  0.29781552    -2.32820
O108        O  0.02277213  0.00957748  0.20389970    -2.29030
O109        O  0.47195391  0.46966111  0.29825268    -0.73620
H110        H  0.41932087  0.00633413  0.24685379     0.78380
H111        H  0.02653880  0.02788689  0.31569446     0.79460
H112        H  0.01330417  0.41091417  0.25642100     0.81690
H113        H  0.03390168  0.01743240  0.18457440     0.79300
H114        H  0.44169233  0.07294783  0.34679034     0.42330
H115        H  0.00868591  0.46516426  0.36104895     0.41300
H116        H  0.07299178  0.40968998  0.28401899     0.40980
H117        H  0.07656543  0.40082053  0.21824609     0.38910
H118        H  0.04154095  0.47269025  0.13996172     0.42050
H119        H  0.49373250  0.03294630  0.13840278     0.36830
H120        H  0.43066952  0.07495049  0.22059277     0.42950
H121        H  0.39748118  0.05355260  0.27419704     0.39360
H122        H  0.07749771  0.40511333  0.18051613     0.44280
H123        H  0.45852242  0.01704314  0.13792600     0.43000
H124        H  0.41367582  0.08101660  0.29454748     0.43140
H125        H  0.04614615  0.47618650  0.35970326     0.43500
C126        C  0.36035281  0.98482679  0.18041511     0.03050
C127        C  0.34112174  0.95884558  0.19199538    -0.13100
C128        C  0.32748720  0.94070195  0.16784031     0.00550
C129        C  0.30706917  0.95923650  0.14846974    -0.11630
C130        C  0.31841751  0.98974911  0.13656880     0.03040
C131        C  0.34821055  0.00143362  0.15164817    -0.11050
H132        H  0.34818691  0.94579400  0.21332832     0.08630
H133        H  0.28856857  0.94642914  0.13543787     0.06160
H134        H  0.36251269  0.02064647  0.14020508     0.06010
C135        C  0.98136263  0.34357989  0.19051424     0.03050
C136        C  0.94883865  0.34516757  0.18161152    -0.13100
C137        C  0.94446788  0.34268582  0.14909749     0.00550
C138        C  0.95303857  0.31229814  0.13885854    -0.11630
C139        C  0.98586336  0.30338967  0.14144525     0.03040
C140        C  0.00119609  0.31997727  0.16967838    -0.11050
H141        H  0.93105633  0.35991370  0.19427885     0.08630
H142        H  0.93668505  0.30083539  0.12253053     0.06160
H143        H  0.02730020  0.31884840  0.17207207     0.06010
C144        C  0.13737866  0.00270143  0.18602608     0.03050
C145        C  0.15520301  0.02799651  0.20011798    -0.13100
C146        C  0.17512078  0.04569351  0.17875664     0.00550
C147        C  0.19748698  0.02494695  0.16311620    -0.11630
C148        C  0.18364392  0.99988074  0.14483479     0.03040
C149        C  0.15192481  0.98831591  0.15700496    -0.11050
H150        H  0.14549157  0.04042332  0.22121786     0.08630
H151        H  0.22162002  0.03404807  0.15671099     0.06160
H152        H  0.13800225  0.97141245  0.14303028     0.06010
C153        C  0.48352731  0.35453889  0.32134307     0.03050
C154        C  0.51620894  0.34520702  0.31592319    -0.13100
C155        C  0.53136744  0.33132002  0.34193784     0.00550
C156        C  0.51387055  0.30478032  0.35430043    -0.11630
C157        C  0.48040540  0.30897549  0.36241077     0.03040
C158        C  0.46464352  0.33559328  0.34557668    -0.11050
H159        H  0.53169665  0.35923363  0.29923020     0.08630
H160        H  0.52760132  0.28727325  0.36755993     0.06160
H161        H  0.44115591  0.34404900  0.35431131     0.06010
C162        C  0.13324453  0.00654324  0.32325129     0.03050
C163        C  0.15171533  0.03368183  0.31301775    -0.13100
C164        C  0.17141133  0.04924651  0.33541710     0.00550
C165        C  0.18914302  0.02908878  0.35557339    -0.11630
C166        C  0.17637530  0.99892621  0.36620118     0.03040
C167        C  0.14614330  0.98869069  0.35067764    -0.11050
H168        H  0.14324183  0.04811337  0.29320006     0.08630
H169        H  0.20872416  0.03994395  0.36869993     0.06160
H170        H  0.13201920  0.96848286  0.35998622     0.06010
C171        C  0.00408090  0.13822255  0.30790205     0.03050
C172        C  0.03558115  0.15203415  0.30225465    -0.13100
C173        C  0.05069776  0.16656498  0.32854016     0.00550
C174        C  0.03100003  0.18835587  0.34570385    -0.11630
C175        C  0.99907770  0.17827631  0.35547153     0.03040
C176        C  0.98491378  0.15284581  0.33496319    -0.11050
H177        H  0.05183069  0.14126872  0.28434404     0.08630
H178        H  0.04352772  0.20547113  0.36079448     0.06160
H179        H  0.96150875  0.14225179  0.34184345     0.06010
C180        C  0.35716242  0.47346543  0.31202324     0.03050
C181        C  0.34728882  0.50472116  0.30316941    -0.13100
C182        C  0.33841704  0.52524193  0.32866975     0.00550
C183        C  0.31424508  0.51181748  0.34895440    -0.11630
C184        C  0.31790893  0.47974634  0.36003964     0.03040
C185        C  0.34164918  0.46038734  0.34181991    -0.11050
H186        H  0.35909118  0.51594528  0.28209198     0.08630
H187        H  0.29891560  0.52833981  0.36243077     0.06160
H188        H  0.34993504  0.43794831  0.35189573     0.06010
O189        O  0.18935258  0.47340566  0.09412770    -0.75370
O190        O  0.21562409  0.01944937  0.09818294    -0.54280
C191        C  0.19754633  0.99594298  0.11015646     0.78360
O192        O  0.30203033  0.40836852  0.99824575    -0.59970
O193        O  0.27793343  0.39178719  0.45149766    -0.53000
C194        C  0.29620220  0.38556770  0.47565523     0.70370
O195        O  0.30957122  0.47328878  0.08428511    -0.74530
O196        O  0.28651580  0.02230724  0.09546333    -0.55100
C197        C  0.30528563  0.99756745  0.10252117     0.76370
O198        O  0.18980728  0.39825681  0.02126849    -0.59680
O199        O  0.20930130  0.39435638  0.46826911    -0.52800
C200        C  0.19156633  0.38280054  0.49279765     0.72960
Zr201      Zr  0.20031132  0.45554406  0.03772351     2.54710
O202        O  0.20261670  0.40917737  0.07415042    -0.80240
O203        O  0.14205763  0.46134985  0.04630057    -0.93660
Zr204      Zr  0.29442701  0.45858061  0.03016045     2.64680
O205        O  0.28018469  0.41759092  0.07003501    -0.98610
O206        O  0.35028092  0.48111013  0.03048193    -0.80680
O207        O  0.24835138  0.48014928  0.05670481    -0.84030
O208        O  0.24665935  0.43652537  0.00910879    -2.18740
O209        O  0.18442519  0.01113008  0.42138588    -0.67420
O210        O  0.21138061  0.45458980  0.39949426    -0.51990
C211        C  0.19644287  0.48114280  0.39192171     0.71350
O212        O  0.27949237  0.08033158  0.49113525    -0.60330
O213        O  0.28258141  0.08653010  0.03842070    -0.52310
C214        C  0.28846974  0.09754142  0.00929041     0.73150
O215        O  0.30897704  0.99795437  0.41757990    -0.71730
O216        O  0.28319784  0.45076337  0.40217932    -0.50400
C217        C  0.30299262  0.47462424  0.39426405     0.74530
O218        O  0.19291443  0.08311036  0.49107247    -0.67060
O219        O  0.21513087  0.08669546  0.03160878    -0.54250
C220        C  0.19676739  0.09825888  0.00864078     0.72910
Zr221      Zr  0.20335381  0.02615519  0.47484678     2.77540
O222        O  0.22955214  0.06315392  0.43605874    -0.97800
O223        O  0.14717053  0.02979943  0.48180796    -0.78630
Zr224      Zr  0.29449883  0.02528577  0.46929283     2.70070
O225        O  0.30198033  0.06070381  0.42276105    -0.79870
O226        O  0.34942968  0.01827340  0.48758490    -0.98960
Zr227      Zr  0.24772687  0.03654086  0.04837150     2.21500
Zr228      Zr  0.24359500  0.44249781  0.45019205     2.11130
O229        O  0.24745960  0.00194163  0.44749920    -2.47640
O230        O  0.24959412  0.04642268  0.49760404    -0.79670
O231        O  0.19597446  0.46717763  0.47779157    -0.71860
O232        O  0.29333586  0.01296065  0.02151778    -2.32820
O233        O  0.19995362  0.01242102  0.02444053    -2.29030
O234        O  0.29136703  0.46664304  0.47334630    -0.73620
H235        H  0.24704812  0.41375627  0.01336684     0.78380
H236        H  0.31181353  0.02218189  0.03184267     0.79460
H237        H  0.24762124  0.00743460  0.42482023     0.81690
H238        H  0.18067010  0.02191562  0.03410381     0.79300
H239        H  0.35347222  0.49376862  0.05033915     0.42330
H240        H  0.35647546  0.99754974  0.47818658     0.41300
H241        H  0.28836012  0.07980895  0.42700453     0.40980
H242        H  0.21520431  0.06279394  0.41760418     0.38910
H243        H  0.14164904  0.01666084  0.46296702     0.42050
H244        H  0.13959541  0.48284585  0.05620059     0.36830
H245        H  0.20835736  0.41741479  0.09562391     0.42950
H246        H  0.26428146  0.42762486  0.08522390     0.39360
H247        H  0.22836470  0.08529473  0.44463082     0.44280
H248        H  0.13613322  0.44607842  0.06405726     0.43000
H249        H  0.26777429  0.40030959  0.05947109     0.43140
H250        H  0.36395092  0.03463042  0.47772709     0.43500
O251        O  0.47678481  0.27173134  0.09093688    -0.75370
O252        O  0.02735743  0.27945944  0.09850385    -0.54280
C253        C  0.99755631  0.28302816  0.11030569     0.78360
O254        O  0.40755358  0.17530453  0.01963030    -0.59970
O255        O  0.39781805  0.20400114  0.47373226    -0.53000
C256        C  0.38756230  0.18454424  0.49728872     0.70370
O257        O  0.48837294  0.18141745  0.08671341    -0.74530
O258        O  0.03167650  0.20778932  0.09604197    -0.55100
C259        C  0.00892569  0.18630334  0.10339775     0.76370
O260        O  0.41281894  0.29283651  0.99948137    -0.59680
O261        O  0.39611051  0.27371423  0.45399233    -0.52800
C262        C  0.38941319  0.29117528  0.47897800     0.72960
Zr263      Zr  0.46102172  0.28465483  0.03422095     2.54710
O264        O  0.41109671  0.28887012  0.06703477    -0.80240
O265        O  0.47351461  0.33862842  0.05352187    -0.93660
Zr266      Zr  0.46391601  0.19292801  0.03387527     2.64680
O267        O  0.42323103  0.20076269  0.07695786    -0.98610
O268        O  0.47134530  0.13625921  0.03736749    -0.80680
O269        O  0.48592819  0.23978467  0.05672444    -0.84030
O270        O  0.43966701  0.23783700  0.00976599    -2.18740
O271        O  0.00050558  0.29858536  0.41397585    -0.67420
O272        O  0.45116632  0.27486227  0.40377019    -0.51990
C273        C  0.47327024  0.29665875  0.39705605     0.71350
O274        O  0.08483587  0.17573452  0.48861526    -0.60330
O275        O  0.08854222  0.20927483  0.02742106    -0.52310
C276        C  0.10099931  0.19126808  0.00399320     0.73150
O277        O  0.01433262  0.18329102  0.41137344    -0.71730
O278        O  0.45447694  0.20580127  0.40011637    -0.50400
C279        C  0.48345064  0.19883848  0.38873107     0.74530
O280        O  0.07749690  0.28822315  0.49574058    -0.67060
O281        O  0.09535241  0.27621663  0.03994528    -0.54250
C282        C  0.09951811  0.29228390  0.01327136     0.72910
Zr283      Zr  0.02778787  0.28776744  0.46506816     2.77540
O284        O  0.06983002  0.28541214  0.42215639    -0.97800
O285        O  0.02988196  0.34585758  0.45494668    -0.78630
Zr286      Zr  0.03120216  0.19541952  0.46779391     2.70070
O287        O  0.07880952  0.19806069  0.43188336    -0.79870
O288        O  0.99416970  0.15188117  0.48022816    -0.98960
Zr289      Zr  0.04203817  0.24550704  0.04729218     2.21500
Zr290      Zr  0.44543368  0.23866879  0.45215796     2.11130
O291        O  0.00742665  0.24028343  0.44294034    -2.47640
O292        O  0.05026630  0.24317793  0.49120088    -0.79670
O293        O  0.46776810  0.28476860  0.47954716    -0.71860
O294        O  0.02092176  0.20063579  0.01781639    -2.32820
O295        O  0.01438044  0.29284718  0.02504366    -2.29030
O296        O  0.47374347  0.19307590  0.47401627    -0.73620
H297        H  0.41676597  0.23721983  0.01570895     0.78380
H298        H  0.03203807  0.18179913  0.02525036     0.79460
H299        H  0.01324768  0.24066106  0.42019740     0.81690
H300        H  0.02325332  0.31205500  0.03450615     0.79300
H301        H  0.47658879  0.13264361  0.06017199     0.42330
H302        H  0.99384144  0.13917098  0.46027532     0.41300
H303        H  0.08941523  0.21894246  0.43676713     0.40980
H304        H  0.06374971  0.26703697  0.40839902     0.38910
H305        H  0.04950929  0.34960159  0.44084501     0.42050
H306        H  0.49259999  0.34759318  0.04132589     0.36830
H307        H  0.40904976  0.26836566  0.07922757     0.42950
H308        H  0.43297742  0.21728859  0.09092690     0.39360
H309        H  0.06682570  0.30473249  0.40852040     0.44280
H310        H  0.48259188  0.33449808  0.07480924     0.43000
H311        H  0.40474526  0.21185383  0.06721271     0.43140
H312        H  0.00454173  0.13917650  0.49706839     0.43500
C313        C  0.18000065  0.13242524  0.01418190     0.03050
C314        C  0.18737989  0.14772895  0.04365065    -0.13100
C315        C  0.16472556  0.16919454  0.05788106     0.00550
C316        C  0.15097623  0.19024342  0.03624418    -0.11630
C317        C  0.13546578  0.17616169  0.01007624     0.03040
C318        C  0.15158739  0.14656687  0.99769004    -0.11050
H319        H  0.20406167  0.13631272  0.05968926     0.08630
H320        H  0.14203290  0.21265761  0.04618840     0.06160
H321        H  0.14105618  0.13374213  0.97782281     0.06010
C322        C  0.17965063  0.34788105  0.99093541     0.03050
C323        C  0.17690524  0.33998652  0.95808329    -0.13100
C324        C  0.13709874  0.33492481  0.45025752     0.00550
C325        C  0.13159719  0.30829991  0.96496663    -0.11630
C326        C  0.13199043  0.30742367  0.99907179     0.03040
C327        C  0.15642285  0.32965331  0.01297477    -0.11050
H328        H  0.18150966  0.35721613  0.43670844     0.08630
H329        H  0.11497881  0.29327338  0.95198320     0.06160
H330        H  0.15446249  0.33573525  0.03833614     0.06010
C331        C  0.35368347  0.17030871  0.99401698     0.03050
C332        C  0.33882616  0.17874945  0.96511016    -0.13100
C333        C  0.32441411  0.15317123  0.94926886     0.00550
C334        C  0.29811087  0.14147607  0.96875303    -0.11630
C335        C  0.30538226  0.13062653  0.00042708     0.03040
C336        C  0.33560196  0.14515486  0.01309822    -0.11050
H337        H  0.34755961  0.19904190  0.95069259     0.08630
H338        H  0.27785541  0.13084194  0.95634042     0.06160
H339        H  0.34601701  0.13542736  0.03466193     0.06010
C340        C  0.35680985  0.30920127  0.48563620     0.03050
C341        C  0.35192815  0.31308863  0.51926615    -0.13100
C342        C  0.34666350  0.34446452  0.52876553     0.00550
C343        C  0.31591305  0.35116905  0.51799618    -0.11630
C344        C  0.31303338  0.35300231  0.48395882     0.03040
C345        C  0.33651230  0.33145334  0.46625980    -0.11050
H346        H  0.36227942  0.29687033  0.53648600     0.08630
H347        H  0.29933841  0.36334465  0.53455476     0.06160
H348        H  0.34108750  0.33425708  0.44051059     0.06010
C349        C  0.38637895  0.39837525  0.46768332    -0.20390
C350        C  0.41930572  0.39297627  0.47060080    -0.06950
C351        C  0.43277482  0.36731164  0.99011774     0.13910
C352        C  0.41046902  0.35645499  0.01430802    -0.20440
C353        C  0.37403613  0.36746175  0.51674960    -0.06960
C354        C  0.36738985  0.39335127  0.49584696     0.13900
C355        C  0.35816254  0.42346058  0.51155067    -0.23790
H356        H  0.37974833  0.41803456  0.45185968     0.15190
H357        H  0.41720276  0.33792583  0.03085581     0.15220
C358        C  0.46437834  0.35130421  0.98433316    -0.23740
H359        H  0.38051697  0.43446913  0.52099946     0.05430
H360        H  0.34527659  0.41944579  0.02936457     0.08660
H361        H  0.34771050  0.44021417  0.49373175     0.08660
H362        H  0.48507980  0.36674003  0.99076693     0.08640
H363        H  0.46348634  0.34521743  0.46004152     0.08640
H364        H  0.46532547  0.33043693  0.99990416     0.05420
C365        C  0.40851451  0.12475888  0.44725668    -0.20390
C366        C  0.40475744  0.10207002  0.47275553    -0.06950
C367        C  0.36424537  0.08588882  0.97595689     0.13910
C368        C  0.34419854  0.09681466  0.95165340    -0.20440
C369        C  0.34937072  0.12761992  0.44506001    -0.06960
C370        C  0.38071475  0.13825975  0.43357998     0.13900
C371        C  0.38464322  0.16240803  0.40654901    -0.23790
H372        H  0.43246864  0.13176445  0.43814060     0.15190
H373        H  0.32137009  0.08577415  0.94893171     0.15220
C374        C  0.35041274  0.06504789  0.00314785    -0.23740
H375        H  0.39721560  0.18432054  0.41509284     0.05430
H376        H  0.37623082  0.18220420  0.90841698     0.08660
H377        H  0.39931247  0.15181362  0.38632070     0.08660
H378        H  0.34861891  0.07872266  0.02605740     0.08640
H379        H  0.38074602  0.05701199  0.52356175     0.08640
H380        H  0.32721632  0.05561226  0.99609494     0.05420
C381        C  0.12767537  0.40175946  0.99808003    -0.20390
C382        C  0.13107107  0.42870490  0.97821651    -0.06950
C383        C  0.12141617  0.42127270  0.45024474     0.13910
C384        C  0.12150977  0.38994916  0.43753565    -0.20440
C385        C  0.12639558  0.36594420  0.95241372    -0.06960
C386        C  0.11458144  0.37488663  0.98369847     0.13900
C387        C  0.08327339  0.36283940  0.99802552    -0.23790
H388        H  0.12163977  0.40517993  0.02361250     0.15190
H389        H  0.12941667  0.38605326  0.41261472     0.15220
C390        C  0.12799902  0.44867897  0.42838696    -0.23740
H391        H  0.06564674  0.38253237  0.00040900     0.05430
H392        H  0.08638830  0.35250043  0.02246484     0.08660
H393        H  0.07344153  0.34605879  0.98075855     0.08660
H394        H  0.14645147  0.46451308  0.43931868     0.08640
H395        H  0.10503248  0.46151771  0.42507088     0.08640
H396        H  0.13768707  0.44073160  0.40441561     0.05420
C397        C  0.08393250  0.15130690  0.06947456    -0.20390
C398        C  0.09198474  0.12270214  0.05247217    -0.06950
C399        C  0.12140599  0.10792786  0.06037774     0.13910
C400        C  0.13960171  0.12199403  0.08452388    -0.20440
C401        C  0.14101717  0.15538063  0.08350803    -0.06960
C402        C  0.10901794  0.16793822  0.08608879     0.13900
C403        C  0.10290221  0.19866639  0.10398797    -0.23790
H404        H  0.06000756  0.16132983  0.06795260     0.15190
H405        H  0.13186822  0.11337011  0.10820684     0.15220
C406        C  0.13531836  0.08055035  0.04157540    -0.23740
H407        H  0.12572458  0.20806461  0.11432173     0.05430
H408        H  0.08179229  0.18566388  0.62406388     0.08660
H409        H  0.09353002  0.21735175  0.08764979     0.08660
H410        H  0.11787859  0.05654991  0.52898641     0.08640
H411        H  0.15901333  0.07348770  0.05016521     0.08640
H412        H  0.13766337  0.08651600  0.01574318     0.05420
C413        C  0.39925809  0.02795657  0.34623977    -0.20390
C414        C  0.36687460  0.53766419  0.34716116    -0.06950
C415        C  0.36508909  0.56082315  0.37183086     0.13910
C416        C  0.38486628  0.55601669  0.39902643    -0.20440
C417        C  0.39995940  0.52575314  0.40347420    -0.06960
C418        C  0.41790063  0.01142573  0.36902609     0.13900
C419        C  0.44960146  0.99638732  0.35952534    -0.23790
H420        H  0.40891545  0.03391928  0.32298079     0.15190
H421        H  0.38897963  0.57489398  0.41574061     0.15220
C422        C  0.34627692  0.59112463  0.36729524    -0.23740
H423        H  0.44899879  0.96997173  0.36398303     0.05430
H424        H  0.39576195  0.45605411  0.39875062     0.08660
H425        H  0.45494047  0.00158085  0.33520700     0.08660
H426        H  0.32765686  0.59395287  0.38685486     0.08640
H427        H  0.34355936  0.09040233  0.39528252     0.08640
H428        H  0.36323213  0.61209307  0.36716626     0.05420
C429        C  0.08215214  0.13766864  0.40719111    -0.20390
C430        C  0.05149400  0.12334431  0.41533946    -0.06950
C431        C  0.52536861  0.12427000  0.39692188     0.13910
C432        C  0.53574262  0.15475012  0.39361500    -0.20440
C433        C  0.06477022  0.14274562  0.35153520    -0.06960
C434        C  0.08699578  0.15139987  0.37566006     0.13900
C435        C  0.11630607  0.17213938  0.36751628    -0.23790
H436        H  0.10100479  0.13895596  0.42482850     0.15190
H437        H  0.54178850  0.16337221  0.41733491     0.15220
C438        C  0.48924503  0.11626688  0.40132154    -0.23740
H439        H  0.11579031  0.19445622  0.38206346     0.05430
H440        H  0.11725548  0.17902523  0.34153143     0.08660
H441        H  0.13870724  0.15865881  0.37269304     0.08660
H442        H  0.48295719  0.10506689  0.42504067     0.08640
H443        H  0.48222772  0.09926374  0.38231077     0.08640
H444        H  0.47403694  0.13788664  0.39982944     0.05420
C445        C  0.12382268  0.57924402  0.35048502    -0.20390
C446        C  0.15917793  0.08114043  0.34901615    -0.06950
C447        C  0.16864836  0.09007145  0.38019566     0.13910
C448        C  0.14866904  0.07989736  0.40709943    -0.20440
C449        C  0.11827720  0.06510631  0.40131928    -0.06960
C450        C  0.09557709  0.57812610  0.37146426     0.13900
C451        C  0.06703321  0.56252078  0.35529214    -0.23790
H452        H  0.12112088  0.58467490  0.32512428     0.15190
H453        H  0.15691618  0.08265799  0.43150892     0.15220
C454        C  0.19764917  0.11192013  0.38362626    -0.23740
H455        H  0.06323001  0.57427378  0.33157560     0.05430
H456        H  0.05337557  0.05946341  0.37371643     0.08660
H457        H  0.07217208  0.53693007  0.35031905     0.08660
H458        H  0.22006978  0.10000470  0.37424730     0.08640
H459        H  0.11288236  0.51361932  0.37245838     0.08640
H460        H  0.19423091  0.13430867  0.36941381     0.05420
C461        C  0.51367420  0.36859699  0.38578092    -0.20390
C462        C  0.53961728  0.35701016  0.36607356    -0.06950
C463        C  0.07036292  0.37522597  0.36309245     0.13910
C464        C  0.07018947  0.40551362  0.37884127    -0.20440
C465        C  0.53637546  0.42058092  0.38864999    -0.06960
C466        C  0.50903218  0.40083122  0.38937036     0.13900
C467        C  0.47484502  0.41346445  0.39450785    -0.23790
H468        H  0.49320065  0.35483782  0.39362040     0.15190
H469        H  0.09207591  0.42013554  0.37916437     0.15220
C470        C  0.10039988  0.36397897  0.34497182    -0.23740
H471        H  0.45637030  0.39383811  0.39777921     0.05430
H472        H  0.46854118  0.42731274  0.37270671     0.08660
H473        H  0.47279490  0.42950054  0.41557828     0.08660
H474        H  0.09490916  0.35928311  0.31934304     0.08640
H475        H  0.10897123  0.34137660  0.35616412     0.08640
H476        H  0.12035153  0.38225934  0.34556506     0.05420
C477        C  0.14143364  0.04534241  0.10456712    -0.20390
C478        C  0.10781882  0.04288962  0.11357510    -0.06950
C479        C  0.09963065  0.56338270  0.14161281     0.13910
C480        C  0.12290827  0.57296956  0.16430941    -0.20440
C481        C  0.15536361  0.06642281  0.15612959    -0.06960
C482        C  0.16309940  0.06381958  0.12331117     0.13900
C483        C  0.19387393  0.08022361  0.11031500    -0.23790
H484        H  0.15049854  0.03416677  0.08273702     0.15190
H485        H  0.11487276  0.58124819  0.18800820     0.15220
C486        C  0.06633035  0.57622910  0.14475330    -0.23740
H487        H  0.19813941  0.07483176  0.08470172     0.05430
H488        H  0.20396331  0.57434433  0.08946881     0.08660
H489        H  0.19208559  0.10664127  0.11343051     0.08660
H490        H  0.06011690  0.58833754  0.12182591     0.08880
H491        H  0.06420609  0.09284803  0.16332422     0.08640
H492        H  0.04924130  0.55637971  0.15041299     0.05420
C493        C  0.99360194  0.37836731  0.13122396    -0.20390
C494        C  0.96018896  0.36927482  0.12851634    -0.06950
C495        C  0.44436787  0.38207274  0.09722484     0.13910
C496        C  0.46158753  0.40129090  0.07446395    -0.20440
C497        C  0.99462686  0.40805355  0.08326707    -0.06960
C498        C  0.01111663  0.39580065  0.10871860     0.13900
C499        C  0.04824226  0.39759565  0.11021094    -0.23790
H500        H  0.00933940  0.37075667  0.14873743     0.15190
H501        H  0.45020190  0.40680969  0.05195456     0.15220
C502        C  0.41067482  0.37033740  0.09106933    -0.23740
H503        H  0.05765354  0.38540285  0.13183027     0.05430
H504        H  0.05692486  0.42296935  0.11031248     0.08660
H505        H  0.05939715  0.38543831  0.08877554     0.08660
H506        H  0.39572995  0.37218620  0.11355231     0.08640
H507        H  0.41096754  0.34467855  0.08464092     0.08640
H508        H  0.39961678  0.38441176  0.07171411     0.05420
C509        C  0.37363013  0.43845923  0.09272542    -0.20390
C510        C  0.40041748  0.94735965  0.10842958    -0.06950
C511        C  0.40847286  0.93563432  0.13966824     0.13910
C512        C  0.38445438  0.91947122  0.15942225    -0.20440
C513        C  0.35187032  0.91916582  0.15002985    -0.06960
C514        C  0.35220808  0.41907284  0.11237563     0.13900
C515        C  0.33223597  0.39187879  0.09975045    -0.23790
H516        H  0.36876626  0.44170430  0.06817581     0.15190
H517        H  0.38956199  0.91313211  0.18411669     0.15220
C518        C  0.44124441  0.94049617  0.15317449    -0.23740
H519        H  0.34236922  0.36844013  0.10711095     0.05430
H520        H  0.32982827  0.88867829  0.07819346     0.08660
H521        H  0.30739003  0.39223966  0.11098771     0.08660
H522        H  0.46043227  0.93200103  0.13653165     0.08640
H523        H  0.44656534  0.42651437  0.17103915     0.08640
H524        H  0.44535239  0.96632475  0.15681317     0.05420
C525        C  0.93898383  0.10025097  0.15481222    -0.20390
C526        C  0.92983547  0.13204494  0.15301147    -0.06950
C527        C  0.41280724  0.13835758  0.13191256     0.13910
C528        C  0.41222176  0.11408699  0.10699022    -0.20440
C529        C  0.93684888  0.09083796  0.09939452    -0.06960
C530        C  0.95389960  0.08780766  0.12732705     0.13900
C531        C  0.99058480  0.09167476  0.12222923    -0.23790
H532        H  0.94550905  0.09162522  0.17736838     0.15190
H533        H  0.39782023  0.11734441  0.08580748     0.15220
C534        C  0.38965398  0.16602317  0.13181958    -0.23740
H535        H  0.00324348  0.08798036  0.14404928     0.05430
H536        H  0.99620096  0.11570183  0.11172195     0.08660
H537        H  0.00235853  0.07461289  0.10531988     0.08660
H538        H  0.40247530  0.18930972  0.13497078     0.08640
H539        H  0.37170652  0.16298915  0.15230807     0.08640
H540        H  0.37606700  0.16674667  0.10909032     0.05420
O541        O  0.46372162  0.08579833  0.54714941    -0.86570
O542        O  0.51528760  0.40298852  0.52552415    -0.86740
O543        O  0.45354495  0.47117665  0.59546218    -0.88410
O544        O  0.05671127  0.02122436  0.60005440    -0.87160
O545        O  0.10010167  0.02226894  0.56421436    -0.86750
O546        O  0.41390980  0.47690106  0.55779921    -0.88120
O547        O  0.52409245  0.44746495  0.55120654    -0.86600
O548        O  0.46458373  0.04279986  0.58096173    -0.86190
Zr549      Zr  0.50774144  0.00246873  0.56796565     2.84310
O550        O  0.04269338  0.48246258  0.53586623    -1.08160
O551        O  0.47609462  0.03122792  0.53380118    -1.08890
C552        C  0.45498424  0.07156811  0.57331080     1.06540
C553        C  0.51219288  0.41890645  0.55105443     1.06480
C554        C  0.42408569  0.46670958  0.58577706     1.09460
C555        C  0.08749498  0.02762330  0.59243359     1.07240
H556        H  0.46456563  0.45131292  0.53869484     0.32800
O557        O  0.47770139  0.46899331  0.53065431    -1.29110
H558        H  0.04404412  0.05845339  0.56072825     0.32470
O559        O  0.03735080  0.04560124  0.54288151    -1.30790
O560        O  0.04468967  0.42342157  0.94881509    -0.86570
O561        O  0.04045252  0.09281613  0.96664243    -0.88060
O562        O  0.42947013  0.44802834  0.98083476    -0.86640
O563        O  0.10758231  0.48303499  0.49259868    -0.86690
O564        O  0.07642165  0.08538332  0.51016299    -0.86400
O565        O  0.41383396  0.05465816  0.00907741    -0.86210
O566        O  0.45817095  0.51372074  0.91572123    -0.86580
O567        O  0.07027433  0.03885498  0.91333739    -0.86040
O568        O  0.41618639  0.50975333  0.95378524    -0.87110
O569        O  0.09655205  0.05802132  0.95680005    -0.86260
O570        O  0.47023016  0.41889842  0.47328441    -0.86660
O571        O  0.44694860  0.09748194  0.99758953    -0.86380
O572        O  0.03965032  0.11072608  0.03142621    -0.86030
O573        O  0.07433392  0.44696212  0.51522993    -0.86440
O574        O  0.03649793  0.46263924  0.91209865    -0.86740
O575        O  0.02702640  0.06816646  0.92078718    -0.88080
Zr576      Zr  0.02096344  0.45018594  0.49464253     2.83100
Zr577      Zr  0.49239932  0.07242012  0.01753609     2.83500
Zr578      Zr  0.44527881  0.49978629  0.00078161     2.84090
Zr579      Zr  0.08006656  0.02532989  0.50869103     2.83360
Zr580      Zr  0.01325948  0.50825052  0.93907178     2.84220
O581        O  0.02411220  0.02351632  0.99272093    -1.08650
O582        O  0.48211212  0.47272538  0.96477248    -1.08150
C583        C  0.04546886  0.43449933  0.92006856     1.06510
C584        C  0.03954340  0.09115818  0.93641614     1.09130
C585        C  0.44446973  0.42172392  0.97439535     1.06680
C586        C  0.09918253  0.45368046  0.49734877     1.07040
C587        C  0.06817061  0.10425166  0.53352119     1.06630
C588        C  0.41960795  0.08315008  0.99659484     1.06180
C589        C  0.42761585  0.51511498  0.92519264     1.06600
C590        C  0.09220266  0.05623477  0.92577228     1.06120
H591        H  0.45568136  0.05143585  0.96616021     0.32790
O592        O  0.46889111  0.03913981  0.97995700    -1.29750
H593        H  0.06858517  0.48106611  0.95554471     0.32820
O594        O  0.05168207  0.48743091  0.97072585    -1.31130
C595        C  0.00709448  0.13293683  0.69009959     0.03050
C596        C  0.97401040  0.14118136  0.69652012    -0.13100
C597        C  0.95478267  0.15277574  0.67123837     0.00550
C598        C  0.97028098  0.17487286  0.65050627    -0.11630
C599        C  0.00353740  0.17170352  0.64157423     0.03040
C600        C  0.02250679  0.14985543  0.66179442    -0.11050
H601        H  0.96105114  0.12869132  0.71623275     0.08630
H602        H  0.95494772  0.18909084  0.63543191     0.06160
H603        H  0.04666372  0.14312351  0.65338559     0.06010
O604        O  0.49233214  0.07664129  0.69783918    -0.75370
O605        O  0.04045109  0.09098548  0.72187701    -0.54280
C606        C  0.01518241  0.09876262  0.70511224     0.78360
O607        O  0.41512504  0.98720829  0.79890610    -0.59970
O608        O  0.39836160  0.43854393  0.78304282    -0.53000
C609        C  0.39254655  0.46403913  0.79944754     0.70370
O610        O  0.47614934  0.08640086  0.79842631    -0.74530
O611        O  0.03112807  0.08791652  0.78988818    -0.55100
C612        C  0.00573141  0.10093777  0.80523658     0.76370
O613        O  0.41301167  0.00647353  0.68757456    -0.59680
O614        O  0.40426849  0.46222974  0.71475528    -0.52800
C615        C  0.39501168  0.48557166  0.69509447     0.72960
Zr616      Zr  0.46869466  0.02070328  0.70143231     2.54710
O617        O  0.41844159  0.05124403  0.70735614    -0.80240
O618        O  0.47463074  0.00873613  0.64428072    -0.93660
Zr619      Zr  0.46271207  0.02664197  0.79446054     2.64680
O620        O  0.41990885  0.06694623  0.78910783    -0.98610
O621        O  0.47209027  0.02993795  0.85208624    -0.80680
O622        O  0.48919903  0.04582422  0.74672073    -0.84030
O623        O  0.44396858  0.99928534  0.74886867    -2.18740
O624        O  0.01646142  0.39439691  0.69684295    -0.67420
O625        O  0.46535659  0.39150332  0.72141898    -0.51990
C626        C  0.48923753  0.37838619  0.70442990     0.71350
O627        O  0.08536847  0.47448043  0.81053325    -0.60330
O628        O  0.09428811  0.01840049  0.78752181    -0.52310
C629        C  0.10428470  0.99361980  0.80494736     0.73150
O630        O  0.99980613  0.40700352  0.81427495    -0.71730
O631        O  0.45498141  0.39357725  0.78747311    -0.50400
C632        C  0.47725571  0.38580893  0.80763605     0.74530
O633        O  0.09012516  0.47238825  0.69333476    -0.67060
O634        O  0.09224398  0.02379422  0.71890940    -0.54250
C635        C  0.10401817  0.99961283  0.70245295     0.72910
Zr636      Zr  0.03489009  0.45250777  0.70554510     2.77540
O637        O  0.07986562  0.41477483  0.70683339    -0.97800
O638        O  0.03246910  0.45969327  0.64751086    -0.78630
Zr639      Zr  0.02822758  0.45871952  0.79865645     2.70070
O640        O  0.06722544  0.41634064  0.80712775    -0.79870
O641        O  0.02085475  0.47528088  0.85286568    -0.98960
Zr642      Zr  0.04552552  0.03831540  0.75481556     2.21500
Zr643      Zr  0.45000340  0.44218158  0.75132901     2.11130
O644        O  0.00806111  0.43286000  0.75287345    -2.47640
O645        O  0.05370446  0.48025148  0.75176264    -0.79670
O646        O  0.47760859  0.46496182  0.70461055    -0.71860
O647        O  0.01936144  0.01607296  0.80197154    -2.32820
O648        O  0.02405256  0.01145499  0.70803794    -2.29030
O649        O  0.47054028  0.46885103  0.79885448    -0.73620
H650        H  0.42135065  0.00482452  0.74745954     0.78380
H651        H  0.02962728  0.02614641  0.81994918     0.79460
H652        H  0.01257039  0.41021314  0.75496049     0.81690
H653        H  0.03486658  0.01992091  0.68883601     0.79300
H654        H  0.46132266  0.04994117  0.85910685     0.42330
H655        H  0.00879703  0.45656721  0.86217965     0.41300
H656        H  0.07065910  0.40650800  0.78556949     0.40980
H657        H  0.07330555  0.39851055  0.72347119     0.38910
H658        H  0.00905857  0.45987566  0.64294644     0.42050
H659        H  0.49675176  0.01334257  0.63520239     0.36830
H660        H  0.42200988  0.06573072  0.72586269     0.42950
H661        H  0.39968642  0.05494851  0.78448920     0.39360
H662        H  0.07941734  0.40311295  0.68604254     0.44280
H663        H  0.45868480  0.02246981  0.63377466     0.43000
H664        H  0.41585551  0.07723118  0.81038916     0.43140
H665        H  0.04370733  0.47296774  0.85898771     0.43500
C666        C  0.36087390  0.97938387  0.68289049     0.03050
C667        C  0.34402133  0.95071780  0.69121180    -0.13100
C668        C  0.33187466  0.93450696  0.66492795     0.00550
C669        C  0.30961319  0.95361041  0.64862202    -0.11630
C670        C  0.31915896  0.98554584  0.63949111     0.03040
C671        C  0.34776048  0.99781952  0.65587200    -0.11050
H672        H  0.35213045  0.93595168  0.71096421     0.08630
H673        H  0.29112996  0.94120187  0.63523536     0.06160
H674        H  0.36062667  0.01896872  0.64651451     0.06010
C675        C  0.98150604  0.34485041  0.68731161     0.03050
C676        C  0.94898976  0.34606030  0.67830697    -0.13100
C677        C  0.94443989  0.34307992  0.64582433     0.00550
C678        C  0.95422691  0.31357089  0.63463785    -0.11630
C679        C  0.98694799  0.30483343  0.63864571     0.03040
C680        C  0.00179053  0.32174346  0.66676295    -0.11050
H681        H  0.93118602  0.36091672  0.69080282     0.08630
H682        H  0.93998309  0.30419379  0.61552488     0.06160
H683        H  0.02784872  0.32080982  0.66954968     0.06010
C684        C  0.13867869  0.00298284  0.69016617     0.03050
C685        C  0.15673407  0.02794080  0.70453034    -0.13100
C686        C  0.17655727  0.04564152  0.68325076     0.00550
C687        C  0.19852946  0.02446511  0.66749527    -0.11630
C688        C  0.18424922  0.00014312  0.64863838     0.03040
C689        C  0.15254221  0.98893031  0.66073029    -0.11050
H690        H  0.14726771  0.04021281  0.72582289     0.08630
H691        H  0.22336592  0.03224533  0.66234020     0.06160
H692        H  0.13822091  0.97250306  0.64659722     0.06010
C693        C  0.48259261  0.35052935  0.81790376     0.03050
C694        C  0.51525715  0.34156894  0.81153329    -0.13100
C695        C  0.53098294  0.32620517  0.83638813     0.00550
C696        C  0.51374370  0.29918811  0.84804693    -0.11630
C697        C  0.48065287  0.30332665  0.85762533     0.03040
C698        C  0.46425639  0.33033063  0.84168356    -0.11050
H699        H  0.53046101  0.35652498  0.79541509     0.08630
H700        H  0.52786541  0.28131490  0.86042086     0.06160
H701        H  0.44099526  0.33848597  0.85134370     0.06010
C702        C  0.14090550  0.99287264  0.81555092     0.03050
C703        C  0.15913901  0.02035528  0.80667764    -0.13100
C704        C  0.17898596  0.03297944  0.83008009     0.00550
C705        C  0.20077851  0.01115065  0.84331856    -0.11630
C706        C  0.18807005  0.98127459  0.85457729     0.03040
C707        C  0.15728534  0.97116504  0.83863354    -0.11050
H708        H  0.14957810  0.03715647  0.78943884     0.08630
H709        H  0.22098249  0.02163156  0.85598545     0.06160
H710        H  0.14379592  0.95047431  0.84823529     0.06010
C711        C  0.00956946  0.13573353  0.82053712     0.03050
C712        C  0.04201223  0.14791235  0.82127129    -0.13100
C713        C  0.04940101  0.17499256  0.83994053     0.00550
C714        C  0.02456224  0.19850850  0.84078009    -0.11630
C715        C  0.99295742  0.18780543  0.85182500     0.03040
C716        C  0.98477387  0.15559806  0.83832427    -0.11050
H717        H  0.06209515  0.13299570  0.81327543     0.08630
H718        H  0.03235613  0.22223433  0.84845392     0.06160
H719        H  0.96092372  0.14514921  0.84365742     0.06010
C720        C  0.35920828  0.47280279  0.81473565     0.03050
C721        C  0.34941884  0.50396091  0.80533761    -0.13100
C722        C  0.34101114  0.52518608  0.83037439     0.00550
C723        C  0.31749816  0.51240022  0.85184540    -0.11630
C724        C  0.32072002  0.48034750  0.86303549     0.03040
C725        C  0.34408727  0.46051812  0.84499260    -0.11050
H726        H  0.36106248  0.51456565  0.78388288     0.08630
H727        H  0.30265763  0.52927597  0.86540298     0.06160
H728        H  0.35195883  0.43797504  0.85518456     0.06010
O729        O  0.18870190  0.47148624  0.59310140    -0.75370
O730        O  0.21803084  0.01898746  0.60324777    -0.54280
C731        C  0.19822028  0.99635070  0.61405230     0.78360
O732        O  0.29873153  0.40679223  0.49811793    -0.59970
O733        O  0.27978409  0.39367436  0.95201306    -0.53000
C734        C  0.29898055  0.38738385  0.97551519     0.70370
O735        O  0.30988983  0.47308413  0.58267986    -0.74530
O736        O  0.28890781  0.02128662  0.60024950    -0.55100
C737        C  0.30602207  0.99527878  0.60626315     0.76370
O738        O  0.18462502  0.39960954  0.51828122    -0.59680
O739        O  0.21173973  0.39454721  0.96994324    -0.52800
C740        C  0.19568574  0.38190796  0.99513104     0.72960
Zr741      Zr  0.19752151  0.45571015  0.53554536     2.54710
O742        O  0.19442393  0.40873841  0.57127600    -0.80240
O743        O  0.14027144  0.46442449  0.54499309    -0.93660
Zr744      Zr  0.29149740  0.45687822  0.52986251     2.64680
O745        O  0.27742841  0.41583842  0.56990351    -0.98610
O746        O  0.34633586  0.47834177  0.53969605    -0.80680
O747        O  0.24550909  0.47889177  0.55580019    -0.84030
O748        O  0.24392713  0.43509135  0.50817994    -2.18740
O749        O  0.19381754  0.99795192  0.91140790    -0.67420
O750        O  0.20894163  0.46086512  0.90370310    -0.51990
C751        C  0.19157340  0.48652525  0.89698233     0.71350
O752        O  0.28053283  0.07997357  0.98462279    -0.60330
O753        O  0.28469403  0.08714883  0.54433033    -0.52310
C754        C  0.28923149  0.09800528  0.51500020     0.73150
O755        O  0.30873391  0.99838679  0.91343330    -0.71730
O756        O  0.28458644  0.45196049  0.90411941    -0.50400
C757        C  0.30524165  0.47530466  0.89692410     0.74530
O758        O  0.18925316  0.08072849  0.98389311    -0.67060
O759        O  0.21836339  0.08788889  0.53904686    -0.54250
C760        C  0.20074017  0.10011859  0.51585673     0.72910
Zr761      Zr  0.20097397  0.02335040  0.96680195     2.77540
O762        O  0.21945113  0.06407911  0.92684914    -0.97800
O763        O  0.14493383  0.03072377  0.97930415    -0.78630
Zr764      Zr  0.29190464  0.02261313  0.96503433     2.70070
O765        O  0.29049041  0.05443302  0.91562891    -0.79870
O766        O  0.34904684  0.01222563  0.96452440    -0.98960
Zr767      Zr  0.25045674  0.03683527  0.55408937     2.21500
Zr768      Zr  0.24452988  0.44398830  0.95156237     2.11130
O769        O  0.24655904  0.99804925  0.94312319    -2.47640
O770        O  0.24667963  0.04436880  0.99133673    -0.79670
O771        O  0.19802812  0.46817412  0.98045528    -0.71860
O772        O  0.29619275  0.01498442  0.52541107    -2.32820
O773        O  0.20253057  0.01246627  0.53131597    -2.29030
O774        O  0.29253233  0.46821542  0.97405589    -0.73620
H775        H  0.24365494  0.41235477  0.51279339     0.78380
H776        H  0.31490754  0.02502075  0.53470270     0.79460
H777        H  0.24863110  0.00305779  0.92039251     0.81690
H778        H  0.18331304  0.02096272  0.54180473     0.79300
H779        H  0.35483340  0.48862212  0.51950341     0.42330
H780        H  0.35139369  0.98978232  0.95689152     0.41300
H781        H  0.27762986  0.07383307  0.92079858     0.40980
H782        H  0.21732456  0.05468807  0.90513902     0.38910
H783        H  0.13598898  0.01867432  0.96128478     0.42050
H784        H  0.13950473  0.48724182  0.55129259     0.36830
H785        H  0.20788839  0.41390465  0.58995122     0.42950
H786        H  0.26359755  0.42682694  0.58635819     0.39360
H787        H  0.20516440  0.08306615  0.92734328     0.44280
H788        H  0.13438513  0.45235352  0.56508103     0.43000
H789        H  0.26271681  0.39995463  0.56007117     0.43140
H790        H  0.35553365  0.02564461  0.94582738     0.43500
O791        O  0.47587323  0.27002818  0.59276600    -0.75370
O792        O  0.02970155  0.27893605  0.59885665    -0.54280
C793        C  0.99961382  0.28391841  0.60862676     0.78360
O794        O  0.40672757  0.17482916  0.51943305    -0.59970
O795        O  0.40037567  0.20155027  0.97176212    -0.53000
C796        C  0.38939127  0.18321218  0.99590990     0.70370
O797        O  0.48650336  0.17713923  0.58456353    -0.74530
O798        O  0.03368313  0.20615303  0.59914272    -0.55100
C799        C  0.01029010  0.18550812  0.60675043     0.76370
O800        O  0.40983498  0.29217210  0.50236991    -0.59680
O801        O  0.39860828  0.27285933  0.95198760    -0.52800
C802        C  0.39227599  0.29150109  0.97628652     0.72960
Zr803      Zr  0.45834260  0.28366506  0.53687690     2.54710
O804        O  0.40863197  0.28661690  0.57020635    -0.80240
O805        O  0.47118145  0.33740868  0.55539278    -0.93660
Zr806      Zr  0.46329727  0.19235207  0.53200957     2.64680
O807        O  0.42350026  0.19748288  0.57617005    -0.98610
O808        O  0.47775954  0.13825613  0.52385864    -0.80680
O809        O  0.48441565  0.23824826  0.55697076    -0.84030
O810        O  0.43785206  0.23766238  0.51069817    -2.18740
O811        O  0.99242820  0.30908793  0.91544945    -0.67420
O812        O  0.45167445  0.27126127  0.90130839    -0.51990
C813        C  0.47510026  0.29103081  0.89277226     0.71350
O814        O  0.08558795  0.18654730  0.97742327    -0.60330
O815        O  0.09031731  0.20678224  0.53360807    -0.52310
C816        C  0.10193044  0.18596557  0.51260934     0.73150
O817        O  0.00770599  0.21263078  0.90296146    -0.71730
O818        O  0.46308588  0.20570332  0.89836295    -0.50400
C819        C  0.48975090  0.19051236  0.88932212     0.74530
O820        O  0.07434977  0.29545816  0.99563323    -0.67060
O821        O  0.09756265  0.27272761  0.54183838    -0.54250
C822        C  0.10194293  0.28701644  0.51417890     0.72910
Zr823      Zr  0.02180613  0.29775118  0.96741386     2.77540
O824        O  0.06453078  0.30027918  0.92510473    -0.97800
O825        O  0.02318040  0.35642780  0.96316420    -0.78630
Zr826      Zr  0.03082335  0.20681963  0.96035046     2.70070
O827        O  0.08094943  0.20976348  0.92686576    -0.79870
O828        O  0.01612428  0.15355344  0.97673367    -0.98960
Zr829      Zr  0.04358643  0.24263537  0.54977659     2.21500
Zr830      Zr  0.44772827  0.23666593  0.95100104     2.11130
O831        O  0.00268393  0.25198166  0.94275231    -2.47640
O832        O  0.04815967  0.25247201  0.98884630    -0.79670
O833        O  0.47039308  0.28353149  0.97656470    -0.71860
O834        O  0.02090730  0.19485143  0.52525279    -2.32820
O835        O  0.01883361  0.28924589  0.52296263    -2.29030
O836        O  0.47436444  0.19178706  0.97574280    -0.73620
H837        H  0.41514081  0.23668427  0.51729854     0.78380
H838        H  0.03040399  0.17593138  0.53458621     0.79460
H839        H  0.00941163  0.25889925  0.92147357     0.81690
H840        H  0.02811592  0.30857932  0.53180313     0.79300
H841        H  0.49175262  0.13531208  0.54252190     0.42330
H842        H  0.00483854  0.14344451  0.95891962     0.41300
H843        H  0.07682490  0.22650241  0.91042853     0.40980
H844        H  0.05940189  0.28316011  0.90951090     0.38910
H845        H  0.03575621  0.36087365  0.94285799     0.42050
H846        H  0.48899191  0.34697726  0.54181628     0.36830
H847        H  0.40693704  0.26573022  0.58178765     0.42950
H848        H  0.43305816  0.21404729  0.59020679     0.39360
H849        H  0.06124842  0.32063460  0.91327205     0.44280
H850        H  0.48218425  0.33331706  0.57573403     0.43000
H851        H  0.40441414  0.20840186  0.56737361     0.43140
H852        H  0.03830888  0.14506344  0.97742234     0.43500
C853        C  0.18502173  0.13436185  0.52056146     0.03050
C854        C  0.19349902  0.15113438  0.54899245    -0.13100
C855        C  0.16799974  0.16690517  0.56614013     0.00550
C856        C  0.15143548  0.18767264  0.54620401    -0.11630
C857        C  0.13715039  0.17378929  0.51896876     0.03040
C858        C  0.15561152  0.14676743  0.50487069    -0.11050
H859        H  0.21305918  0.14192921  0.56316223     0.08630
H860        H  0.14093586  0.20870535  0.55751810     0.06160
H861        H  0.14610553  0.13451781  0.48415476     0.06010
C862        C  0.17528396  0.34938072  0.48851467     0.03050
C863        C  0.16906371  0.34347153  0.45582667    -0.13100
C864        C  0.14509036  0.33497142  0.94890718     0.00550
C865        C  0.13033055  0.30588219  0.46559391    -0.11630
C866        C  0.13285044  0.30443756  0.49942623     0.03040
C867        C  0.15592095  0.32878131  0.51195303    -0.11050
H868        H  0.19313502  0.35092991  0.93989185     0.08630
H869        H  0.11695183  0.28784893  0.45275931     0.06160
H870        H  0.15587655  0.33399639  0.53752119     0.06010
C871        C  0.35163333  0.17228355  0.49663013     0.03050
C872        C  0.33666041  0.17892225  0.46726834    -0.13100
C873        C  0.32293698  0.15205338  0.45308720     0.00550
C874        C  0.29699594  0.14059286  0.47300415    -0.11630
C875        C  0.30446402  0.13159495  0.50516701     0.03040
C876        C  0.33384692  0.14811558  0.51728742    -0.11050
H877        H  0.34629540  0.19749606  0.45104769     0.08630
H878        H  0.27685444  0.12925239  0.46104227     0.06160
H879        H  0.34395282  0.14049890  0.53978318     0.06010
C880        C  0.35976403  0.31007966  0.98307773     0.03050
C881        C  0.35512153  0.31347858  0.01676701    -0.13100
C882        C  0.35065163  0.34477002  0.02697952     0.00550
C883        C  0.31992550  0.35233456  0.01673318    -0.11630
C884        C  0.31640780  0.35471623  0.98283660     0.03040
C885        C  0.33944457  0.33308126  0.96439638    -0.11050
H886        H  0.36482922  0.29647455  0.03360624     0.08630
H887        H  0.30360445  0.36415097  0.03378365     0.06160
H888        H  0.34361624  0.33622953  0.93863231     0.06010
C889        C  0.39175520  0.39807348  0.96624417    -0.20390
C890        C  0.42453669  0.39275555  0.97007976    -0.06950
C891        C  0.42795111  0.36763981  0.49067680     0.13910
C892        C  0.40617576  0.35671236  0.51528739    -0.20440
C893        C  0.37837056  0.36746504  0.01521483    -0.06960
C894        C  0.37219580  0.39329328  0.99402269     0.13900
C895        C  0.36293350  0.42367506  0.00917904    -0.23790
H896        H  0.38551681  0.41759468  0.95007321     0.15190
H897        H  0.41344129  0.33848185  0.53200703     0.15220
C898        C  0.46002586  0.35262058  0.48564845    -0.23740
H899        H  0.38516554  0.43495322  0.01869413     0.05430
H900        H  0.34049663  0.41875832  0.53177647     0.08660
H901        H  0.35247578  0.43992863  0.99089360     0.08660
H902        H  0.47958916  0.36881685  0.49306153     0.08640
H903        H  0.46654760  0.34350478  0.95874753     0.08640
H904        H  0.46106138  0.33184411  0.50133755     0.05420
C905        C  0.40554733  0.12213541  0.95339694    -0.20390
C906        C  0.39560814  0.09849985  0.97666728    -0.06950
C907        C  0.37409415  0.09312026  0.48404171     0.13910
C908        C  0.34897579  0.09897682  0.46356104    -0.20440
C909        C  0.34924849  0.12776090  0.93851963    -0.06960
C910        C  0.38246689  0.13653705  0.93358556     0.13900
C911        C  0.39310879  0.16170410  0.90908216    -0.23790
H912        H  0.43085820  0.12969551  0.95094614     0.15190
H913        H  0.32753469  0.08544250  0.46732585     0.15220
C914        C  0.36828750  0.07971866  0.51824233    -0.23740
H915        H  0.41749085  0.17119169  0.91462789     0.05430
H916        H  0.36067803  0.16935794  0.39721190     0.08660
H917        H  0.39453045  0.15094940  0.88467356     0.08660
H918        H  0.37699566  0.09749066  0.53586897     0.08640
H919        H  0.36284847  0.04257959  0.00822412     0.08640
H920        H  0.34256335  0.07439505  0.52367931     0.05420
C921        C  0.11530756  0.39937976  0.50370467    -0.20390
C922        C  0.11694915  0.42611063  0.48377638    -0.06950
C923        C  0.13527307  0.42336326  0.94444374     0.13910
C924        C  0.13638794  0.39166962  0.93242186    -0.20440
C925        C  0.11495506  0.36322546  0.45764947    -0.06960
C926        C  0.10543893  0.37066072  0.49044209     0.13900
C927        C  0.07845262  0.35497866  0.50998355    -0.23790
H928        H  0.11126394  0.40279754  0.52957219     0.15190
H929        H  0.14448275  0.38703234  0.90770468     0.15220
C930        C  0.13196300  0.44966875  0.92067911    -0.23740
H931        H  0.06090543  0.37324228  0.51813186     0.05430
H932        H  0.08754716  0.34384974  0.53228316     0.08660
H933        H  0.06433496  0.33891738  0.49549367     0.08660
H934        H  0.13879864  0.47283975  0.93113437     0.08640
H935        H  0.10663320  0.45151379  0.91296108     0.08640
H936        H  0.14789523  0.44369206  0.89972953     0.05420
C937        C  0.08617468  0.14057264  0.57858444    -0.20390
C938        C  0.09239289  0.11536758  0.55638754    -0.06950
C939        C  0.12274884  0.10046071  0.55684682     0.13910
C940        C  0.14593141  0.11283676  0.57692692    -0.20440
C941        C  0.14456120  0.14505736  0.58580547    -0.06960
C942        C  0.11269761  0.15537517  0.59413505     0.13900
C943        C  0.10788122  0.18181416  0.61829350    -0.23790
H944        H  0.06188582  0.14994148  0.58185604     0.15190
H945        H  0.16913585  0.10247791  0.57374072     0.15220
C946        C  0.13413977  0.07631631  0.53209979    -0.23740
H947        H  0.11943709  0.17491377  0.64114124     0.05430
H948        H  0.08503707  0.19403148  0.12424621     0.08660
H949        H  0.11907301  0.20470927  0.60927351     0.08660
H950        H  0.11921450  0.06016400  0.04239668     0.08640
H951        H  0.15700626  0.06509895  0.53834829     0.08640
H952        H  0.13603851  0.08741681  0.50791713     0.05420
C953        C  0.39528077  0.01982196  0.84672460    -0.20390
C954        C  0.36967491  0.54041763  0.84662135    -0.06950
C955        C  0.36644341  0.55924269  0.87445402     0.13910
C956        C  0.38536618  0.55098998  0.90142103    -0.20440
C957        C  0.40437347  0.52254517  0.90067681    -0.06960
C958        C  0.40343115  0.00554781  0.87510725     0.13900
C959        C  0.42128449  0.97394281  0.87446813    -0.23790
H960        H  0.41604846  0.02871266  0.83313444     0.15190
H961        H  0.38707309  0.56704036  0.92133775     0.15220
C962        C  0.35079938  0.59147498  0.87127702    -0.23740
H963        H  0.42676194  0.96519239  0.89901353     0.05430
H964        H  0.44948016  0.47931463  0.85352266     0.08660
H965        H  0.40610172  0.95495149  0.86366975     0.08660
H966        H  0.37001442  0.61037674  0.87135415     0.08640
H967        H  0.33196535  0.09008966  0.84472609     0.08640
H968        H  0.33812447  0.59360404  0.84809042     0.05420
C969        C  0.08341231  0.13050686  0.91249081    -0.20390
C970        C  0.05076273  0.11746143  0.91748657    -0.06950
C971        C  0.50417372  0.11609045  0.88857635     0.13910
C972        C  0.52556763  0.11404721  0.86293522    -0.20440
C973        C  0.05976316  0.16623592  0.87335976    -0.06960
C974        C  0.08830742  0.15155207  0.88476237     0.13900
C975        C  0.12116832  0.15802231  0.86929715    -0.23790
H976        H  0.10333509  0.12366335  0.92732216     0.15190
H977        H  0.51831826  0.09927083  0.84382048     0.15220
C978        C  0.46749060  0.11118703  0.88457112    -0.23740
H979        H  0.14024435  0.14454573  0.88188555     0.05430
H980        H  0.12692684  0.18418391  0.87041976     0.08660
H981        H  0.12125880  0.15038032  0.84363542     0.08660
H982        H  0.45497121  0.09253818  0.89962956     0.08640
H983        H  0.46205277  0.10464419  0.85945950     0.08640
H984        H  0.45507522  0.13394973  0.89053915     0.05420
C985        C  0.12479899  0.57271886  0.84112461    -0.20390
C986        C  0.16019510  0.05250066  0.85456208    -0.06950
C987        C  0.15580449  0.04040505  0.88640888     0.13910
C988        C  0.14667920  0.06424035  0.90781929    -0.20440
C989        C  0.11500314  0.07239374  0.90188749    -0.06960
C990        C  0.10294003  0.55781148  0.86361627     0.13900
C991        C  0.07003399  0.54900336  0.85167068    -0.23790
H992        H  0.11747776  0.57660456  0.81652324     0.15190
H993        H  0.15408874  0.06205154  0.93230016     0.15220
C994        C  0.13222622  0.01100488  0.89000496    -0.23740
H995        H  0.06728595  0.55742293  0.82655163     0.05430
H996        H  0.06029055  0.09710034  0.86071249     0.08660
H997        H  0.06690308  0.52260013  0.85261470     0.08660
H998        H  0.14249027  0.98796097  0.89058907     0.08640
H999        H  0.19157029  0.60904070  0.91088466     0.08640
H1000       H  0.12079326  0.00854783  0.91403542     0.05420
C1001       C  0.51442510  0.36219135  0.88158194    -0.20390
C1002       C  0.53999857  0.35037877  0.86168307    -0.06950
C1003       C  0.06897385  0.36842858  0.86124659     0.13910
C1004       C  0.07270162  0.39665355  0.88001771    -0.20440
C1005       C  0.54263315  0.40986730  0.89347358    -0.06960
C1006       C  0.51341471  0.39310348  0.89184471     0.13900
C1007       C  0.48024062  0.40599942  0.90197125    -0.23790
H1008       H  0.49251902  0.34973537  0.88739889     0.15190
H1009       H  0.09639909  0.40773369  0.88188269     0.15220
C1010       C  0.09749370  0.35454321  0.84268241    -0.23740
H1011       H  0.46894120  0.38988474  0.92061900     0.05430
H1012       H  0.46437015  0.40578282  0.88077736     0.08660
H1013       H  0.48049708  0.43088618  0.91126962     0.08660
H1014       H  0.09227574  0.35360748  0.81656305     0.08640
H1015       H  0.10199669  0.32975200  0.85156107     0.08640
H1016       H  0.11993221  0.36929268  0.84563012     0.05420
C1017       C  0.14465459  0.04832691  0.60749306    -0.20390
C1018       C  0.11087605  0.04369553  0.61594583    -0.06950
C1019       C  0.09746272  0.55889008  0.64254601     0.13910
C1020       C  0.12174152  0.56917578  0.66401922    -0.20440
C1021       C  0.15664098  0.06653082  0.66076163    -0.06960
C1022       C  0.16568686  0.06568972  0.62821497     0.13900
C1023       C  0.19840717  0.08069851  0.61830926    -0.23790
H1024       H  0.15425732  0.03998673  0.58468043     0.15190
H1025       H  0.11471276  0.57893639  0.68741392     0.15220
C1026       C  0.06511180  0.57423690  0.64452885    -0.23740
H1027       H  0.19668976  0.10731979  0.61990182     0.05430
H1028       H  0.21442615  0.57093266  0.62171322     0.08660
H1029       H  0.21833159  0.07453080  0.63424339     0.08660
H1030       H  0.06037457  0.58595520  0.62098540     0.08880
H1031       H  0.06381081  0.08948503  0.66664258     0.08640
H1032       H  0.04580416  0.55636471  0.65033335     0.05420
C1033       C  0.99170475  0.38002846  0.62746684    -0.20390
C1034       C  0.95867332  0.36961494  0.62479155    -0.06950
C1035       C  0.44245690  0.38067161  0.59773271     0.13910
C1036       C  0.45934152  0.39905499  0.57398351    -0.20440
C1037       C  0.99159557  0.40717349  0.57815061    -0.06960
C1038       C  0.00856974  0.39707126  0.60421397     0.13900
C1039       C  0.04555146  0.40060603  0.60565367    -0.23790
H1040       H  0.00748467  0.37353697  0.64545081     0.15190
H1041       H  0.44742611  0.40408559  0.55164543     0.15220
C1042       C  0.40860038  0.36861850  0.59253513    -0.23740
H1043       H  0.05519979  0.39165596  0.62873499     0.05430
H1044       H  0.05328517  0.42614711  0.60269358     0.08660
H1045       H  0.05725952  0.38657129  0.58575227     0.08660
H1046       H  0.39387411  0.37082456  0.61516449     0.08640
H1047       H  0.40891724  0.34285221  0.58649211     0.08640
H1048       H  0.39711020  0.38219792  0.57313491     0.05420
C1049       C  0.37140956  0.43471969  0.59612187    -0.20390
C1050       C  0.40704174  0.94938778  0.60301927    -0.06950
C1051       C  0.41469375  0.93670968  0.63412275     0.13910
C1052       C  0.39069632  0.92022759  0.65330265    -0.20440
C1053       C  0.35840213  0.91924421  0.64366068    -0.06960
C1054       C  0.34961905  0.41629742  0.61605455     0.13900
C1055       C  0.32864431  0.38978819  0.60362745    -0.23790
H1056       H  0.36760336  0.43608343  0.57120971     0.15190
H1057       H  0.39577804  0.91323646  0.67783162     0.15220
C1058       C  0.44672804  0.94093232  0.64907443    -0.23740
H1059       H  0.33769578  0.36617666  0.61194577     0.05430
H1060       H  0.33337018  0.89485527  0.57095527     0.08660
H1061       H  0.30350649  0.39187638  0.61387410     0.08660
H1062       H  0.46749983  0.93796189  0.63205054     0.08640
H1063       H  0.44352344  0.42708015  0.67598278     0.08640
H1064       H  0.44638364  0.96484388  0.65932890     0.05420
C1065       C  0.93944704  0.09744874  0.65898794    -0.20390
C1066       C  0.93095519  0.12939399  0.65565444    -0.06950
C1067       C  0.41426367  0.13759181  0.62515217     0.13910
C1068       C  0.41931831  0.11729588  0.59749132    -0.20440
C1069       C  0.94040672  0.08735727  0.60294356    -0.06960
C1070       C  0.95489820  0.08375587  0.63237609     0.13900
C1071       C  0.99140873  0.07948109  0.63250329    -0.23790
H1072       H  0.94589827  0.08984175  0.68192136     0.15190
H1073       H  0.40794065  0.12267223  0.57495677     0.15220
C1074       C  0.38808320  0.16251258  0.62606749    -0.23740
H1075       H  0.99819159  0.06222184  0.65061228     0.05430
H1076       H  0.00260427  0.10267037  0.63654553     0.08660
H1077       H  0.00406307  0.07263015  0.60966559     0.08660
H1078       H  0.39800534  0.18641916  0.63273497     0.08640
H1079       H  0.36914328  0.15544788  0.64463227     0.08640
H1080       H  0.37607077  0.16428309  0.60250164     0.05420
O1081       O  0.45739594  0.58435139  0.04760432    -0.86570
O1082       O  0.51476260  0.90445017  0.02542449    -0.86740
O1083       O  0.45319237  0.97153053  0.09572547    -0.88410
O1084       O  0.05473650  0.52313252  0.10031415    -0.87160
O1085       O  0.09630993  0.52597653  0.06213616    -0.86750
O1086       O  0.41346567  0.97692216  0.05811658    -0.88120
O1087       O  0.52407907  0.94841670  0.05174109    -0.86600
O1088       O  0.46307469  0.54312269  0.08285523    -0.86190
Zr1089     Zr  0.50532574  0.50205869  0.06912068     2.84310
O1090       O  0.04985440  0.98463086  0.03287312    -1.08160
O1091       O  0.47340841  0.53108946  0.03517099    -1.08890
C1092       C  0.45114287  0.57086325  0.07474875     1.06540
C1093       C  0.51214406  0.91988586  0.05128211     1.06480
C1094       C  0.42371900  0.96688429  0.08611855     1.09460
C1095       C  0.08502429  0.53006768  0.09116373     1.07240
H1096       H  0.46415286  0.95195651  0.03891069     0.32800
O1097       O  0.47703448  0.96993120  0.03086775    -1.29110
H1098       H  0.04051100  0.55937841  0.05849971     0.32470
O1099       O  0.03303556  0.54479074  0.04230894    -1.30790
O1100       O  0.04682574  0.92840665  0.44220512    -0.86570
O1101       O  0.02664778  0.59298266  0.46930606    -0.88060
O1102       O  0.43513021  0.94676844  0.47979472    -0.86640
O1103       O  0.11496390  0.98143244  0.99759863    -0.86690
O1104       O  0.07267890  0.58316500  0.00322545    -0.86400
O1105       O  0.41435737  0.55315916  0.50283426    -0.86210
O1106       O  0.45951755  0.00360172  0.42098386    -0.86580
O1107       O  0.05621455  0.54190883  0.41835334    -0.86040
O1108       O  0.41597982  0.99683551  0.45540641    -0.87110
O1109       O  0.08691179  0.55755596  0.46057690    -0.86260
O1110       O  0.46996727  0.92009386  0.97294309    -0.86660
O1111       O  0.44765843  0.59703283  0.49615601    -0.86380
O1112       O  0.03415985  0.60816016  0.54270411    -0.86030
O1113       O  0.07879615  0.94823674  0.01945218    -0.86440
O1114       O  0.04194600  0.96886765  0.40567753    -0.86740
O1115       O  0.00702923  0.56868995  0.42585635    -0.88080
Zr1116     Zr  0.03000146  0.95174529  0.99122339     2.83100
Zr1117     Zr  0.49291028  0.57159804  0.51686490     2.83500
Zr1118     Zr  0.44929659  0.99828344  0.50014025     2.84090
Zr1119     Zr  0.07439729  0.52353525  0.00734801     2.83360
Zr1120     Zr  0.02518011  0.01692710  0.43627490     2.84220
O1121       O  0.03118365  0.54765380  0.48250319    -1.08650
O1122       O  0.48832612  0.97074533  0.46704049    -1.08150
C1123       C  0.04774699  0.93946817  0.41347377     1.06510
C1124       C  0.01817727  0.59336022  0.44018437     1.09130
C1125       C  0.44984974  0.91996214  0.47635646     1.06680
C1126       C  0.10479421  0.95263195  0.00283140     1.07040
C1127       C  0.06460418  0.60303256  0.02558290     1.06630
C1128       C  0.42021986  0.58296666  0.49422560     1.06180
C1129       C  0.42832192  0.00118374  0.42711823     1.06600
C1130       C  0.07902189  0.55881005  0.43022462     1.06120
H1131       H  0.45789588  0.55127036  0.46495901     0.32790
O1132       O  0.46996339  0.53831481  0.47923377    -1.29750
H1133       H  0.07623130  0.98280680  0.45437912     0.32820
O1134       O  0.05935897  0.99079625  0.46876347    -1.31130
C1135       C  0.00706644  0.63380811  0.18843269     0.03050
C1136       C  0.97445219  0.64265773  0.19615867    -0.13100
C1137       C  0.95465395  0.65500688  0.17164921     0.00550
C1138       C  0.96988166  0.67703621  0.15056954    -0.11630
C1139       C  0.00267559  0.67316296  0.14049705     0.03040
C1140       C  0.02187317  0.65098230  0.16001359    -0.11050
H1141       H  0.96191929  0.62992404  0.21597587     0.08630
H1142       H  0.95438766  0.69146217  0.13589141     0.06160
H1143       H  0.04561276  0.64400655  0.15081074     0.06010
O1144       O  0.49148429  0.57729583  0.19910748    -0.75370
O1145       O  0.04091549  0.59119616  0.21820314    -0.54280
C1146       C  0.01523852  0.59916471  0.20231964     0.78360
O1147       O  0.41313850  0.48907346  0.29885922    -0.59970
O1148       O  0.40004413  0.93881691  0.28601157    -0.53000
C1149       C  0.39410077  0.96412900  0.30255358     0.70370
O1150       O  0.47543409  0.58652346  0.29847090    -0.74530
O1151       O  0.02660616  0.59060139  0.27809571    -0.55100
C1152       C  0.00080317  0.60358263  0.29273243     0.76370
O1153       O  0.41305055  0.50803107  0.18659788    -0.59680
O1154       O  0.40380819  0.96312173  0.21413361    -0.52800
C1155       C  0.39480864  0.98632365  0.19421130     0.72960
Zr1156     Zr  0.46833880  0.52153545  0.20199992     2.54710
O1157       O  0.41769632  0.55155074  0.20749934    -0.80240
O1158       O  0.47765895  0.51091338  0.14512355    -0.93660
Zr1159     Zr  0.46193581  0.52679706  0.29502104     2.64680
O1160       O  0.41911508  0.56719795  0.29287538    -0.98610
O1161       O  0.47057501  0.52965753  0.35262997    -0.80680
O1162       O  0.48850164  0.54638497  0.24760119    -0.84030
O1163       O  0.44327315  0.50007775  0.24904840    -2.18740
O1164       O  0.01244429  0.89422622  0.19982771    -0.67420
O1165       O  0.46527967  0.89230152  0.22114974    -0.51990
C1166       C  0.48925347  0.87885715  0.20463098     0.71350
O1167       O  0.08017904  0.97854331  0.31662835    -0.60330
O1168       O  0.09329530  0.52310842  0.28564418    -0.52310
C1169       C  0.10447043  0.49859321  0.30254860     0.73150
O1170       O  0.99848313  0.90793574  0.31683745    -0.71730
O1171       O  0.45342088  0.89436493  0.28633758    -0.50400
C1172       C  0.47508111  0.88659552  0.30710010     0.74530
O1173       O  0.08658178  0.97273167  0.19286102    -0.67060
O1174       O  0.09188987  0.52424271  0.21431252    -0.54250
C1175       C  0.10396119  0.50004874  0.19823004     0.72910
Zr1176     Zr  0.03157530  0.95209630  0.20775759     2.77540
O1177       O  0.07597050  0.91452340  0.21478417    -0.97800
O1178       O  0.02888398  0.95325052  0.14934928    -0.78630
Zr1179     Zr  0.02412182  0.96089818  0.30189370     2.70070
O1180       O  0.06665154  0.92260237  0.31125515    -0.79870
O1181       O  0.00232194  0.97958978  0.35287422    -0.98960
Zr1182     Zr  0.04535870  0.53836256  0.25012135     2.21500
Zr1183     Zr  0.44958676  0.94308231  0.25040035     2.11130
O1184       O  0.00471897  0.93442675  0.25589883    -2.47640
O1185       O  0.04935544  0.98074393  0.25369821    -0.79670
O1186       O  0.47828559  0.96496258  0.20392173    -0.71860
O1187       O  0.01927748  0.51693437  0.29801910    -2.32820
O1188       O  0.02465346  0.51058288  0.20335908    -2.29030
O1189       O  0.47023876  0.97103379  0.29623390    -0.73620
H1190       H  0.42071360  0.50570732  0.24736967     0.78380
H1191       H  0.02796673  0.52782567  0.31634982     0.79460
H1192       H  0.00918792  0.91178395  0.25807277     0.81690
H1193       H  0.03507555  0.51884873  0.18385020     0.79300
H1194       H  0.46734744  0.50713899  0.35986382     0.42330
H1195       H  0.00121144  0.96004110  0.36628641     0.41300
H1196       H  0.06900849  0.91065525  0.29070082     0.40980
H1197       H  0.06755027  0.89853210  0.23092953     0.38910
H1198       H  0.02599211  0.97612366  0.14347900     0.42050
H1199       H  0.49914930  0.51926024  0.13747281     0.36830
H1200       H  0.42026807  0.56486251  0.22705867     0.42950
H1201       H  0.39886538  0.55538553  0.28802373     0.39360
H1202       H  0.07767179  0.90249281  0.19421341     0.44280
H1203       H  0.46059790  0.52359478  0.13514523     0.43000
H1204       H  0.41560585  0.57591934  0.31492576     0.43140
H1205       H  0.01988063  0.99341856  0.36112644     0.43500
C1206       C  0.36040446  0.48184786  0.18177197     0.03050
C1207       C  0.34249078  0.45422548  0.19136851    -0.13100
C1208       C  0.32962556  0.43738467  0.16585500     0.00550
C1209       C  0.30808172  0.45649193  0.14849732    -0.11630
C1210       C  0.31867187  0.48772908  0.13806234     0.03040
C1211       C  0.34780563  0.49964789  0.15398208    -0.11050
H1212       H  0.35019787  0.43999290  0.21167992     0.08630
H1213       H  0.28947620  0.44405263  0.13527703     0.06160
H1214       H  0.36140194  0.51996933  0.14375916     0.06010
C1215       C  0.97689600  0.84570181  0.18867198     0.03050
C1216       C  0.94500036  0.84842414  0.17814137    -0.13100
C1217       C  0.94176670  0.84562641  0.14545333     0.00550
C1218       C  0.95103155  0.81574237  0.13457702    -0.11630
C1219       C  0.98320662  0.80585395  0.13967114     0.03040
C1220       C  0.99733036  0.82221087  0.16855824    -0.11050
H1221       H  0.92747760  0.86421299  0.18980117     0.08630
H1222       H  0.93724252  0.80667785  0.11503309     0.06160
H1223       H  0.02313241  0.82034757  0.17251319     0.06010
C1224       C  0.13872745  0.50374474  0.18657987     0.03050
C1225       C  0.15639450  0.52886389  0.20117987    -0.13100
C1226       C  0.17622808  0.54688263  0.18012142     0.00550
C1227       C  0.19852005  0.52614374  0.16432808    -0.11630
C1228       C  0.18460740  0.50137829  0.14572101     0.03040
C1229       C  0.15304920  0.48975545  0.15750103    -0.11050
H1230       H  0.14659401  0.54094856  0.22245150     0.08630
H1231       H  0.22300682  0.53470299  0.15865471     0.06160
H1232       H  0.13910235  0.47307897  0.14328276     0.06010
C1233       C  0.48017893  0.85114242  0.31705185     0.03050
C1234       C  0.51265164  0.84197088  0.31004251    -0.13100
C1235       C  0.52888264  0.82658732  0.33455531     0.00550
C1236       C  0.51163898  0.79996314  0.34726572    -0.11630
C1237       C  0.47858470  0.80419157  0.35715503     0.03040
C1238       C  0.46200678  0.83098555  0.34105018    -0.11050
H1239       H  0.52760103  0.85693082  0.29369276     0.08630
H1240       H  0.52591286  0.78233225  0.35980111     0.06160
H1241       H  0.43882715  0.83919382  0.35086370     0.06010
C1242       C  0.13954051  0.50095898  0.31630528     0.03050
C1243       C  0.15502046  0.53077865  0.31080536    -0.13100
C1244       C  0.17225059  0.54347541  0.33613078     0.00550
C1245       C  0.19508183  0.52246562  0.34895355    -0.11630
C1246       C  0.18506188  0.49056105  0.35691000     0.03040
C1247       C  0.15571416  0.47954176  0.33968453    -0.11050
H1248       H  0.14511937  0.54764177  0.29383881     0.08630
H1249       H  0.21417899  0.53346326  0.36266998     0.06160
H1250       H  0.14354679  0.45738165  0.34729092     0.06010
C1251       C  0.00388929  0.63959250  0.30594507     0.03050
C1252       C  0.03663382  0.65096791  0.30508276    -0.13100
C1253       C  0.04829018  0.66420606  0.33360292     0.00550
C1254       C  0.02887243  0.68917097  0.34551660    -0.11630
C1255       C  0.99587788  0.68125943  0.35303740     0.03040
C1256       C  0.98240982  0.65621834  0.33078415    -0.11050
H1257       H  0.05467062  0.63925264  0.28969944     0.08630
H1258       H  0.04097430  0.70677944  0.36038953     0.06160
H1259       H  0.95809157  0.64673116  0.33537124     0.06010
C1260       C  0.36098578  0.97170510  0.31852241     0.03050
C1261       C  0.35017607  0.00208244  0.30859765    -0.13100
C1262       C  0.33983540  0.02231538  0.33334042     0.00550
C1263       C  0.31438965  0.00845102  0.35185850    -0.11630
C1264       C  0.31973790  0.97747783  0.36479467     0.03040
C1265       C  0.34553076  0.95888266  0.34845935    -0.11050
H1266       H  0.36130835  0.01330910  0.28722844     0.08630
H1267       H  0.29783027  0.02465825  0.36444079     0.06160
H1268       H  0.35464977  0.93730168  0.35958580     0.06010
O1269       O  0.18979817  0.97101058  0.09356054    -0.75370
O1270       O  0.21790503  0.52023859  0.10036121    -0.54280
C1271       C  0.19844677  0.49747228  0.11134023     0.78360
O1272       O  0.29923677  0.90617585  0.99956202    -0.59970
O1273       O  0.27962611  0.89454141  0.45278175    -0.53000
C1274       C  0.29915257  0.88846465  0.47605385     0.70370
O1275       O  0.31016314  0.97398099  0.08292102    -0.74530
O1276       O  0.28839473  0.52243125  0.09776571    -0.55100
C1277       C  0.30571961  0.49665445  0.10436668     0.76370
O1278       O  0.18324290  0.90040031  0.01838496    -0.59680
O1279       O  0.21197193  0.89489605  0.47133240    -0.52800
C1280       C  0.19644113  0.88165683  0.49648479     0.72960
Zr1281     Zr  0.19842490  0.95538157  0.03607108     2.54710
O1282       O  0.20522333  0.90965665  0.07228753    -0.80240
O1283       O  0.14171025  0.96001620  0.05292349    -0.93660
Zr1284     Zr  0.29197817  0.95695999  0.03057442     2.64680
O1285       O  0.27875116  0.91707702  0.07181547    -0.98610
O1286       O  0.34680376  0.97867437  0.03963169    -0.80680
O1287       O  0.24588747  0.97954126  0.05586794    -0.84030
O1288       O  0.24478196  0.93387388  0.00931042    -2.18740
O1289       O  0.19219820  0.50399359  0.41311881    -0.67420
O1290       O  0.20808611  0.96380790  0.40560307    -0.51990
C1291       C  0.18982052  0.98927627  0.39989230     0.71350
O1292       O  0.27906938  0.58003574  0.48521615    -0.60330
O1293       O  0.28418217  0.58779967  0.04155436    -0.52310
C1294       C  0.28914172  0.59872663  0.01230449     0.73150
O1295       O  0.30784530  0.49892501  0.41301170    -0.71730
O1296       O  0.28375272  0.95024124  0.40606328    -0.50400
C1297       C  0.30425892  0.97348208  0.39877157     0.74530
O1298       O  0.18806879  0.58114324  0.48751412    -0.67060
O1299       O  0.21676751  0.58803127  0.03574070    -0.54250
C1300       C  0.19862944  0.60022375  0.01287147     0.72910
Zr1301     Zr  0.19999706  0.52499840  0.46884104     2.77540
O1302       O  0.21510518  0.56920248  0.43172783    -0.97800
O1303       O  0.14282474  0.53075103  0.47774998    -0.78630
Zr1304     Zr  0.29145397  0.52333269  0.46487471     2.70070
O1305       O  0.29097017  0.55578328  0.41572789    -0.79870
O1306       O  0.34883773  0.51476769  0.46571595    -0.98960
Zr1307     Zr  0.24998627  0.53751916  0.05117855     2.21500
Zr1308     Zr  0.24402043  0.94469057  0.45319222     2.11130
O1309       O  0.24528435  0.49997518  0.44339433    -2.47640
O1310       O  0.24672052  0.54497166  0.49228693    -0.79670
O1311       O  0.19791255  0.96838918  0.48275290    -0.71860
O1312       O  0.29569994  0.51494578  0.02306200    -2.32820
O1313       O  0.20196317  0.51302622  0.02866006    -2.29030
O1314       O  0.29256079  0.96851607  0.47557050    -0.73620
H1315       H  0.24424508  0.91120815  0.01443816     0.78380
H1316       H  0.31447159  0.52476927  0.03227371     0.79460
H1317       H  0.24733954  0.50548372  0.42077528     0.81690
H1318       H  0.18287028  0.52181915  0.03915380     0.79300
H1319       H  0.35506629  0.98852489  0.01916215     0.42330
H1320       H  0.35169554  0.49244948  0.45786577     0.41300
H1321       H  0.27638860  0.57404787  0.42057003     0.40980
H1322       H  0.22060487  0.55917785  0.41070793     0.38910
H1323       H  0.13515044  0.51968931  0.45849954     0.42050
H1324       H  0.14023292  0.98017071  0.06536698     0.36830
H1325       H  0.18381257  0.90651790  0.08367791     0.42950
H1326       H  0.26275764  0.92739139  0.08673736     0.39360
H1327       H  0.19557596  0.58205166  0.42775505     0.44280
H1328       H  0.13755004  0.94263674  0.06907355     0.43000
H1329       H  0.26649905  0.89948384  0.06157825     0.43140
H1330       H  0.35551338  0.52845873  0.44725124     0.43500
O1331       O  0.47598498  0.76968572  0.09417225    -0.75370
O1332       O  0.02617526  0.78023989  0.09937555    -0.54280
C1333       C  0.99607924  0.78425247  0.10994210     0.78360
O1334       O  0.40737528  0.67444701  0.01936798    -0.59970
O1335       O  0.39830961  0.70183191  0.47228436    -0.53000
C1336       C  0.38732811  0.68325946  0.49610372     0.70370
O1337       O  0.48639308  0.67849730  0.08635063    -0.74530
O1338       O  0.03122994  0.70812555  0.09788335    -0.55100
C1339       C  0.00871228  0.68652404  0.10544482     0.76370
O1340       O  0.41062352  0.79158185  0.00344124    -0.59680
O1341       O  0.39715999  0.77270366  0.45158816    -0.52800
C1342       C  0.39145640  0.79134970  0.47599588     0.72960
Zr1343     Zr  0.45870014  0.78355582  0.03836719     2.54710
O1344       O  0.40895209  0.78692417  0.07153954    -0.80240
O1345       O  0.47161117  0.83755491  0.05613128    -0.93660
Zr1346     Zr  0.46370292  0.69213092  0.03313990     2.64680
O1347       O  0.42298094  0.69745169  0.07649889    -0.98610
O1348       O  0.47725589  0.63722317  0.02898885    -0.80680
O1349       O  0.48443003  0.73793412  0.05866435    -0.84030
O1350       O  0.43849069  0.73759516  0.01185216    -2.18740
O1351       O  0.99855904  0.80025452  0.41290159    -0.67420
O1352       O  0.45023251  0.77101849  0.40079713    -0.51990
C1353       C  0.47308998  0.79160211  0.39229938     0.71350
O1354       O  0.08410480  0.67945105  0.48397530    -0.60330
O1355       O  0.08858561  0.70903670  0.03353525    -0.52310
C1356       C  0.10115222  0.69056330  0.01069346     0.73150
O1357       O  0.01030592  0.68636833  0.40981434    -0.71730
O1358       O  0.46023794  0.70398556  0.39840678    -0.50400
C1359       C  0.48715803  0.68933313  0.38917018     0.74530
O1360       O  0.07834284  0.79185622  0.49217523    -0.67060
O1361       O  0.09366409  0.77719004  0.04344910    -0.54250
C1362       C  0.09765302  0.79234462  0.01630634     0.72910
Zr1363     Zr  0.02618454  0.78979293  0.46425883     2.77540
O1364       O  0.06842361  0.78542196  0.42167985    -0.97800
O1365       O  0.02964590  0.84756080  0.45299776    -0.78630
Zr1366     Zr  0.02973015  0.69824503  0.46605416     2.70070
O1367       O  0.07765746  0.70329525  0.43077203    -0.79870
O1368       O  0.01057332  0.65002826  0.49055974    -0.98960
Zr1369     Zr  0.04127706  0.74521788  0.04913886     2.21500
Zr1370     Zr  0.44570159  0.73579364  0.45061854     2.11130
O1371       O  0.00466660  0.74249543  0.44223495    -2.47640
O1372       O  0.04938421  0.74551483  0.49007684    -0.79670
O1373       O  0.46911542  0.78171255  0.47623934    -0.71860
O1374       O  0.01955465  0.69880656  0.02188555    -2.32820
O1375       O  0.01530549  0.79211457  0.02409022    -2.29030
O1376       O  0.47221080  0.69082237  0.47565620    -0.73620
H1377       H  0.41573574  0.73645651  0.01825994     0.78380
H1378       H  0.02990327  0.67985245  0.03019613     0.79460
H1379       H  0.01015014  0.74293684  0.41943165     0.81690
H1380       H  0.02438763  0.81127538  0.03344216     0.79300
H1381       H  0.48621593  0.63329777  0.05048754     0.42330
H1382       H  0.99743311  0.63971442  0.47399526     0.41300
H1383       H  0.08845635  0.72361955  0.43720783     0.40980
H1384       H  0.06119569  0.76779960  0.40751518     0.38910
H1385       H  0.04785372  0.85039571  0.43692286     0.42050
H1386       H  0.48917802  0.84722157  0.04228678     0.36830
H1387       H  0.40657374  0.76572461  0.08243918     0.42950
H1388       H  0.43223318  0.71404423  0.09070734     0.39360
H1389       H  0.06675994  0.80512427  0.40829579     0.44280
H1390       H  0.48291559  0.83362163  0.07634618     0.43000
H1391       H  0.40404184  0.70828500  0.06731477     0.43140
H1392       H  0.03191460  0.63980097  0.49226842     0.43500
C1393       C  0.18252128  0.63454387  0.01831354     0.03050
C1394       C  0.19035253  0.64990844  0.04771056    -0.13100
C1395       C  0.16452114  0.66492044  0.06497571     0.00550
C1396       C  0.14944868  0.68755638  0.04581710    -0.11630
C1397       C  0.13566879  0.67599235  0.01732132     0.03040
C1398       C  0.15358813  0.64853588  0.00255467    -0.11050
H1399       H  0.20958756  0.64014989  0.06192465     0.08630
H1400       H  0.13953260  0.70844406  0.05790534     0.06160
H1401       H  0.14408461  0.63724357  0.98131084     0.06010
C1402       C  0.17304331  0.85036429  0.98942160     0.03050
C1403       C  0.16679633  0.84389596  0.95685923    -0.13100
C1404       C  0.14671064  0.83390313  0.44951818     0.00550
C1405       C  0.12783371  0.80659118  0.96747127    -0.11630
C1406       C  0.12938753  0.80719319  0.00137684     0.03040
C1407       C  0.15298307  0.83117063  0.01331091    -0.11050
H1408       H  0.19398267  0.85196405  0.44058998     0.08630
H1409       H  0.11331130  0.78880830  0.95546727     0.06160
H1410       H  0.15276321  0.83735033  0.03866424     0.06010
C1411       C  0.35266213  0.67212590  0.99548257     0.03050
C1412       C  0.33783761  0.67993627  0.96631370    -0.13100
C1413       C  0.32338343  0.65394270  0.95124486     0.00550
C1414       C  0.29744959  0.64202383  0.97098969    -0.11630
C1415       C  0.30498037  0.63206470  0.00286525     0.03040
C1416       C  0.33465062  0.64762110  0.01532939    -0.11050
H1417       H  0.34770097  0.69892003  0.95072880     0.08630
H1418       H  0.27740184  0.63075512  0.95879275     0.06160
H1419       H  0.34468811  0.63927153  0.03760613     0.06010
C1420       C  0.35960838  0.81079784  0.48312561     0.03050
C1421       C  0.35579121  0.81482315  0.51681114    -0.13100
C1422       C  0.35269569  0.84641139  0.52660257     0.00550
C1423       C  0.32201389  0.85454544  0.51692846    -0.11630
C1424       C  0.31739855  0.85630456  0.48321248     0.03040
C1425       C  0.33936397  0.83390385  0.46453817    -0.11050
H1426       H  0.36508814  0.79766206  0.53370414     0.08630
H1427       H  0.30571655  0.86575606  0.53440141     0.06160
H1428       H  0.34268760  0.83634117  0.43861066     0.06010
C1429       C  0.39703408  0.89778763  0.46502932    -0.20390
C1430       C  0.42942651  0.89164595  0.47052880    -0.06950
C1431       C  0.42875111  0.86803371  0.99074170     0.13910
C1432       C  0.40735895  0.85660811  0.01546915    -0.20440
C1433       C  0.38099938  0.86793978  0.51394614    -0.06960
C1434       C  0.37589693  0.89339431  0.49173157     0.13900
C1435       C  0.36433670  0.92413794  0.50479489    -0.23790
H1436       H  0.39207325  0.91736252  0.44842895     0.15190
H1437       H  0.41505440  0.83844076  0.03204697     0.15220
C1438       C  0.46112800  0.85367094  0.98552149    -0.23740
H1439       H  0.38581261  0.93787116  0.51285442     0.05430
H1440       H  0.34099090  0.91802043  0.03298241     0.08660
H1441       H  0.35242195  0.93857397  0.48594978     0.08660
H1442       H  0.48034599  0.87027282  0.99286964     0.08640
H1443       H  0.46687561  0.83947909  0.45872599     0.08640
H1444       H  0.46278720  0.83296214  0.00120482     0.05420
C1445       C  0.40465141  0.62337955  0.45271439    -0.20390
C1446       C  0.39560191  0.59974395  0.47637387    -0.06950
C1447       C  0.37044318  0.59145656  0.97901024     0.13910
C1448       C  0.34701058  0.59929877  0.95706945    -0.20440
C1449       C  0.34792034  0.62732227  0.43873218    -0.06960
C1450       C  0.38081397  0.63672060  0.43299860     0.13900
C1451       C  0.38992578  0.66119488  0.40731574    -0.23790
H1452       H  0.42963839  0.63181298  0.44999644     0.15190
H1453       H  0.32490738  0.58670467  0.95869014     0.15220
C1454       C  0.36160104  0.57434399  0.01083400    -0.23740
H1455       H  0.40574155  0.64992536  0.38853386     0.05430
H1456       H  0.36357801  0.67257127  0.89552709     0.08660
H1457       H  0.36799192  0.67024048  0.39537660     0.08660
H1458       H  0.36648371  0.59031191  0.03148822     0.08640
H1459       H  0.36298428  0.54477421  0.51147697     0.08640
H1460       H  0.33632794  0.56688681  0.01145009     0.05420
C1461       C  0.11302319  0.89556301  0.00632254    -0.20390
C1462       C  0.11952130  0.92352240  0.98842876    -0.06950
C1463       C  0.13557235  0.92105327  0.44565065     0.13910
C1464       C  0.13491834  0.88954711  0.43322251    -0.20440
C1465       C  0.11189222  0.86302987  0.95801244    -0.06960
C1466       C  0.10023781  0.86916374  0.99038273     0.13900
C1467       C  0.06533856  0.86404050  0.00080077    -0.23790
H1468       H  0.10727474  0.89783265  0.03203334     0.15190
H1469       H  0.14185314  0.88512499  0.40814566     0.15220
C1470       C  0.13361925  0.94791174  0.42224630    -0.23740
H1471       H  0.05095237  0.88378917  0.99063151     0.05430
H1472       H  0.06216680  0.86367086  0.02758285     0.08660
H1473       H  0.05504102  0.84183895  0.99239188     0.08660
H1474       H  0.13887164  0.97115472  0.43378378     0.08640
H1475       H  0.10899444  0.94932230  0.41286757     0.08640
H1476       H  0.15070985  0.94269313  0.40187259     0.05420
C1477       C  0.08180680  0.63862388  0.07177349    -0.20390
C1478       C  0.08859937  0.61412604  0.04883136    -0.06950
C1479       C  0.11878467  0.59886251  0.04991338     0.13910
C1480       C  0.14137471  0.61034483  0.07114080    -0.20440
C1481       C  0.13976738  0.64206787  0.08160615    -0.06960
C1482       C  0.10779488  0.65236031  0.08905611     0.13900
C1483       C  0.10251236  0.67746706  0.11450491    -0.23790
H1484       H  0.05747317  0.64805163  0.07473983     0.15190
H1485       H  0.16457678  0.59970335  0.06876174     0.15220
C1486       C  0.13076983  0.57512729  0.02501996    -0.23740
H1487       H  0.11300247  0.66903061  0.13738425     0.05430
H1488       H  0.08554110  0.69335830  0.62878096     0.08660
H1489       H  0.11435549  0.70063756  0.10728190     0.08660
H1490       H  0.11649811  0.55868613  0.54297404     0.08640
H1491       H  0.15352509  0.56387435  0.03178668     0.08640
H1492       H  0.13326916  0.58704586  0.00114441     0.05420
C1493       C  0.39283227  0.51681512  0.34934082    -0.20390
C1494       C  0.36696359  0.03596971  0.35315424    -0.06950
C1495       C  0.36134264  0.04298260  0.38532827     0.13910
C1496       C  0.37522293  0.02190889  0.40757578    -0.20440
C1497       C  0.40589577  0.00852946  0.40070000    -0.06960
C1498       C  0.39959615  0.50381079  0.37861608     0.13900
C1499       C  0.41186666  0.46981721  0.38142491    -0.23790
H1500       H  0.41468287  0.52671896  0.33816579     0.15190
H1501       H  0.36610833  0.02278627  0.43136584     0.15220
C1502       C  0.36691564  0.07793625  0.39172484    -0.23740
H1503       H  0.41214175  0.45721273  0.35792206     0.05430
H1504       H  0.47084073  0.00843781  0.36981294     0.08660
H1505       H  0.43691190  0.46963177  0.39027884     0.08660
H1506       H  0.38290721  0.08032783  0.41240211     0.08640
H1507       H  0.33377248  0.59103732  0.34393069     0.08640
H1508       H  0.38007123  0.09064782  0.37132877     0.05420
C1509       C  0.05739912  0.63460184  0.41818011    -0.20390
C1510       C  0.02564100  0.62055659  0.41973110    -0.06950
C1511       C  0.50482337  0.61720142  0.38978410     0.13910
C1512       C  0.52511103  0.61576781  0.36330124    -0.20440
C1513       C  0.05243174  0.63975744  0.36008034    -0.06960
C1514       C  0.07007809  0.64656188  0.38793540     0.13900
C1515       C  0.10370104  0.66102661  0.38425031    -0.23790
H1516       H  0.07256758  0.63394454  0.43904847     0.15190
H1517       H  0.51754778  0.60062381  0.34454563     0.15220
C1518       C  0.46877378  0.60832007  0.38747436    -0.23740
H1519       H  0.11612154  0.66141254  0.40766679     0.05430
H1520       H  0.10240733  0.68591773  0.37447658     0.08660
H1521       H  0.11868877  0.64643474  0.36715223     0.08660
H1522       H  0.45663674  0.60254248  0.41107285     0.08640
H1523       H  0.46520883  0.58777733  0.37093422     0.08640
H1524       H  0.45518009  0.62909879  0.37913033     0.05420
C1525       C  0.12559129  0.08459746  0.34581691    -0.20390
C1526       C  0.15132597  0.56162272  0.36044423    -0.06950
C1527       C  0.14750086  0.54934805  0.39233051     0.13910
C1528       C  0.13358179  0.57188837  0.41325260    -0.20440
C1529       C  0.10102133  0.57605373  0.40609408    -0.06960
C1530       C  0.10582611  0.06887263  0.36954671     0.13900
C1531       C  0.07469864  0.05321973  0.35857489    -0.23790
H1532       H  0.11641865  0.08763338  0.32177186     0.15190
H1533       H  0.14086398  0.57230023  0.43797295     0.15220
C1534       C  0.12771478  0.51735428  0.39377567    -0.23740
H1535       H  0.06941819  0.06021740  0.33343842     0.05430
H1536       H  0.04405922  0.56256630  0.36964307     0.08660
H1537       H  0.07664085  0.02674863  0.35964991     0.08660
H1538       H  0.14130269  0.49645414  0.39666628     0.08640
H1539       H  0.20059636  0.11894182  0.40919605     0.08640
H1540       H  0.11071989  0.51428348  0.41439208     0.05420
C1541       C  0.51430277  0.86414387  0.37869722    -0.20390
C1542       C  0.53926992  0.85077011  0.35925385    -0.06950
C1543       C  0.07138112  0.87050018  0.35758938     0.13910
C1544       C  0.07444739  0.90009203  0.37451858    -0.20440
C1545       C  0.54709473  0.90766265  0.39481990    -0.06960
C1546       C  0.51641343  0.89366151  0.39232468     0.13900
C1547       C  0.48462508  0.90765660  0.40515605    -0.23790
H1548       H  0.49143922  0.85297822  0.38356830     0.15190
H1549       H  0.09770561  0.91248443  0.37458713     0.15220
C1550       C  0.09950027  0.85759921  0.33769294    -0.23740
H1551       H  0.47316376  0.89030460  0.42252084     0.05430
H1552       H  0.46791154  0.91069028  0.38484890     0.08660
H1553       H  0.48669459  0.93128352  0.41699266     0.08660
H1554       H  0.09257225  0.85514965  0.31212396     0.08640
H1555       H  0.10622794  0.83359157  0.34717674     0.08640
H1556       H  0.12114118  0.87385078  0.33848219     0.05420
C1557       C  0.14298966  0.54913785  0.10487757    -0.20390
C1558       C  0.10931373  0.54546592  0.11403030    -0.06950
C1559       C  0.09836258  0.06160704  0.14077559     0.13910
C1560       C  0.12196076  0.07173122  0.16297231    -0.20440
C1561       C  0.15633789  0.56782341  0.15772277    -0.06960
C1562       C  0.16461588  0.56647157  0.12498508     0.13900
C1563       C  0.19663731  0.58198368  0.11394214    -0.23790
H1564       H  0.15176434  0.54109855  0.08155663     0.15190
H1565       H  0.11423033  0.08061511  0.18653711     0.15220
C1566       C  0.06510661  0.07460465  0.14413106    -0.23740
H1567       H  0.19413267  0.60857014  0.11451818     0.05430
H1568       H  0.21574846  0.07337818  0.12331070     0.08660
H1569       H  0.21697578  0.57676998  0.12975990     0.08660
H1570       H  0.05909466  0.08691254  0.12124426     0.08880
H1571       H  0.06526963  0.59453773  0.16383754     0.08640
H1572       H  0.04752406  0.05506492  0.14983771     0.05420
C1573       C  0.99074329  0.88100132  0.12927238    -0.20390
C1574       C  0.95757097  0.87195854  0.12520747    -0.06950
C1575       C  0.44270557  0.88112603  0.09791487     0.13910
C1576       C  0.45955371  0.89956134  0.07421469    -0.20440
C1577       C  0.99411834  0.90781667  0.07986294    -0.06960
C1578       C  0.00965671  0.89579338  0.10599904     0.13900
C1579       C  0.04670561  0.89577179  0.10804348    -0.23790
H1580       H  0.00514199  0.87450991  0.14836037     0.15190
H1581       H  0.44756926  0.90470827  0.05194384     0.15220
C1582       C  0.40877727  0.86930285  0.09276933    -0.23740
H1583       H  0.05499977  0.88417899  0.13052043     0.05430
H1584       H  0.05705100  0.92053902  0.10717854     0.08660
H1585       H  0.05732962  0.88211808  0.08732138     0.08660
H1586       H  0.39418120  0.87161460  0.11546020     0.08640
H1587       H  0.40888551  0.84354716  0.08664476     0.08640
H1588       H  0.39733732  0.88303078  0.07343763     0.05420
C1589       C  0.37090965  0.93509575  0.09686422    -0.20390
C1590       C  0.40330490  0.45043573  0.10437030    -0.06950
C1591       C  0.41139221  0.43762385  0.13533014     0.13910
C1592       C  0.38779183  0.42068105  0.15472405    -0.20440
C1593       C  0.35533358  0.41976940  0.14553864    -0.06960
C1594       C  0.34923926  0.91663847  0.11690037     0.13900
C1595       C  0.32898849  0.88939613  0.10481625    -0.23790
H1596       H  0.36683149  0.93667131  0.07207566     0.15190
H1597       H  0.39316053  0.41365931  0.17917737     0.15220
C1598       C  0.44376134  0.44198489  0.14942048    -0.23740
H1599       H  0.33855253  0.86614577  0.11353186     0.05430
H1600       H  0.33227546  0.39214788  0.07320596     0.08660
H1601       H  0.30375436  0.89097088  0.11496061     0.08660
H1602       H  0.46325731  0.43583351  0.13206172     0.08640
H1603       H  0.44338712  0.92724642  0.17623668     0.08640
H1604       H  0.44583474  0.46714589  0.15624058     0.05420
C1605       C  0.93929802  0.60013785  0.15844999    -0.20390
C1606       C  0.93035056  0.63204171  0.15634196    -0.06950
C1607       C  0.41268682  0.63827953  0.12658658     0.13910
C1608       C  0.41626493  0.61720723  0.09923582    -0.20440
C1609       C  0.93964234  0.59211650  0.10205972    -0.06960
C1610       C  0.95451009  0.58750578  0.13114820     0.13900
C1611       C  0.99072297  0.58107053  0.13077929    -0.23790
H1612       H  0.94571632  0.59179020  0.18116627     0.15190
H1613       H  0.40406449  0.62216221  0.07699534     0.15220
C1614       C  0.38727721  0.66397628  0.12762915    -0.23740
H1615       H  0.99672184  0.56220822  0.14757979     0.05430
H1616       H  0.00328389  0.60296929  0.13648138     0.08660
H1617       H  0.00294282  0.57565084  0.10728898     0.08660
H1618       H  0.39800315  0.68770460  0.13369642     0.08640
H1619       H  0.36852847  0.65772838  0.14666839     0.08640
H1620       H  0.37484172  0.66575952  0.10429281     0.05420
O1621       O  0.44915428  0.58024949  0.55532089    -0.86570
O1622       O  0.52752192  0.90241884  0.53229588    -0.86740
O1623       O  0.45940652  0.97520326  0.59163415    -0.88410
O1624       O  0.05080133  0.51810583  0.60365502    -0.87160
O1625       O  0.09192404  0.51739213  0.56523110    -0.86750
O1626       O  0.42146958  0.97841537  0.55239646    -0.88120
O1627       O  0.52926243  0.94989508  0.55383796    -0.86600
O1628       O  0.46168057  0.53994630  0.58926491    -0.86190
Zr1629     Zr  0.50241487  0.49783929  0.57232323     2.84310
O1630       O  0.05018672  0.98174984  0.53213684    -1.08160
O1631       O  0.46837449  0.52759781  0.54150946    -1.08890
C1632       C  0.44596516  0.56611496  0.58235011     1.06540
C1633       C  0.51923890  0.92068285  0.55508032     1.06480
C1634       C  0.43060588  0.96931845  0.58111778     1.09460
C1635       C  0.08113897  0.52361014  0.59402104     1.07240
H1636       H  0.47243405  0.95196802  0.53714976     0.32800
O1637       O  0.48613576  0.96899547  0.52837533    -1.29110
H1638       H  0.03817427  0.55748032  0.56579190     0.32470
O1639       O  0.03013009  0.54440633  0.54867503    -1.30790
O1640       O  0.05455132  0.92805920  0.94470727    -0.86570
O1641       O  0.03187545  0.58457973  0.95729341    -0.88060
O1642       O  0.42368849  0.94812868  0.98423314    -0.86640
O1643       O  0.11566319  0.97928980  0.49609828    -0.86690
O1644       O  0.07572627  0.58543004  0.51533311    -0.86400
O1645       O  0.42243710  0.55406162  0.99162358    -0.86210
O1646       O  0.45329270  0.01948822  0.91786769    -0.86580
O1647       O  0.06505147  0.52145206  0.91189601    -0.86040
O1648       O  0.41199650  0.01284191  0.95611570    -0.87110
O1649       O  0.09432000  0.54361573  0.95215624    -0.86260
O1650       O  0.48031206  0.91576187  0.48081082    -0.86660
O1651       O  0.45557596  0.59830573  0.98596288    -0.86380
O1652       O  0.03485837  0.61001840  0.02968283    -0.86030
O1653       O  0.08044457  0.93697506  0.49077508    -0.86440
O1654       O  0.04299727  0.96648639  0.90800015    -0.86740
O1655       O  0.01522257  0.55728800  0.91359041    -0.88080
Zr1656     Zr  0.02637180  0.95102140  0.49082138     2.83100
Zr1657     Zr  0.49982374  0.57227677  0.00721010     2.83500
Zr1658     Zr  0.43819639  0.99981957  0.00580339     2.84090
Zr1659     Zr  0.07110687  0.52617925  0.51098122     2.83360
Zr1660     Zr  0.02311607  0.01441574  0.93658225     2.84220
O1661       O  0.03503409  0.54246932  0.97649874    -1.08650
O1662       O  0.47471056  0.97735739  0.96662841    -1.08150
C1663       C  0.05223223  0.93809678  0.91576987     1.06510
C1664       C  0.03187096  0.57920377  0.92682853     1.09130
C1665       C  0.43897180  0.92276840  0.97481546     1.06680
C1666       C  0.10874588  0.94964988  0.49008536     1.07040
C1667       C  0.06475554  0.60454149  0.53741170     1.06630
C1668       C  0.42802343  0.58438142  0.98491270     1.06180
C1669       C  0.42313530  0.01930910  0.92735959     1.06600
C1670       C  0.08976167  0.53756843  0.92173683     1.06120
H1671       H  0.46650773  0.55094011  0.95516969     0.32790
O1672       O  0.47683393  0.53754587  0.97064523    -1.29750
H1673       H  0.08062290  0.98486745  0.95199159     0.32820
O1674       O  0.06282804  0.99197920  0.96581886    -1.31130
C1675       C  0.00812331  0.63356396  0.68775012     0.03050
C1676       C  0.97607325  0.64290194  0.69659010    -0.13100
C1677       C  0.95607699  0.65552166  0.67268755     0.00550
C1678       C  0.97074470  0.67777140  0.65147917    -0.11630
C1679       C  0.00363091  0.67453655  0.64123920     0.03040
C1680       C  0.02254443  0.65078245  0.65918018    -0.11050
H1681       H  0.96362386  0.62960330  0.71609959     0.08630
H1682       H  0.95494954  0.69224649  0.63716611     0.06160
H1683       H  0.04583477  0.64346605  0.64898271     0.06010
O1684       O  0.49150129  0.57756285  0.69635097    -0.75370
O1685       O  0.03962098  0.59006322  0.71790108    -0.54280
C1686       C  0.01499390  0.59842058  0.70045150     0.78360
O1687       O  0.41448355  0.48658312  0.79980925    -0.59970
O1688       O  0.40012573  0.93868866  0.78361958    -0.53000
C1689       C  0.39325248  0.96444546  0.79908339     0.70370
O1690       O  0.47903775  0.58322429  0.80928786    -0.74530
O1691       O  0.03305639  0.58797626  0.78613570    -0.55100
C1692       C  0.00771648  0.60086896  0.80175713     0.76370
O1693       O  0.41396958  0.50922393  0.68650973    -0.59680
O1694       O  0.40522823  0.95926518  0.71593051    -0.52800
C1695       C  0.39499926  0.98230502  0.69664361     0.72960
Zr1696     Zr  0.46898560  0.52226614  0.70387312     2.54710
O1697       O  0.42242189  0.55613407  0.71615323    -0.80240
O1698       O  0.47893827  0.51420199  0.64722395    -0.93660
Zr1699     Zr  0.46194852  0.52618304  0.79631827     2.64680
O1700       O  0.42061155  0.56677378  0.78431653    -0.98610
O1701       O  0.46902387  0.53610485  0.85376340    -0.80680
O1702       O  0.48926602  0.54696339  0.74971341    -0.84030
O1703       O  0.44290831  0.50002060  0.75003035    -2.18740
O1704       O  0.01371722  0.89668162  0.69864335    -0.67420
O1705       O  0.46636024  0.89045891  0.72205333    -0.51990
C1706       C  0.49001504  0.87719129  0.70484390     0.71350
O1707       O  0.08454898  0.97049036  0.81403794    -0.60330
O1708       O  0.09412420  0.52310468  0.78525648    -0.52310
C1709       C  0.10379603  0.49924006  0.80354831     0.73150
O1710       O  0.99920366  0.90649864  0.81705192    -0.71730
O1711       O  0.45731214  0.89518083  0.78977101    -0.50400
C1712       C  0.47980442  0.88891079  0.81006597     0.74530
O1713       O  0.08825992  0.97344795  0.69668413    -0.67060
O1714       O  0.09394154  0.52252786  0.71613129    -0.54250
C1715       C  0.10590905  0.49839553  0.69965285     0.72910
Zr1716     Zr  0.03297940  0.95390161  0.70945459     2.77540
O1717       O  0.07700997  0.91531042  0.71294516    -0.97800
O1718       O  0.03345097  0.96320758  0.65177720    -0.78630
Zr1719     Zr  0.02613584  0.95900161  0.80328800     2.70070
O1720       O  0.06668678  0.91886817  0.81310497    -0.79870
O1721       O  0.00725265  0.97969448  0.85426783    -0.98960
Zr1722     Zr  0.04640948  0.53804628  0.75082999     2.21500
Zr1723     Zr  0.45186980  0.94164075  0.75164557     2.11130
O1724       O  0.00621302  0.93422803  0.75679121    -2.47640
O1725       O  0.05112358  0.98071794  0.75606430    -0.79670
O1726       O  0.47843386  0.96366725  0.70425273    -0.71860
O1727       O  0.01829965  0.51552640  0.79717418    -2.32820
O1728       O  0.02622669  0.51021122  0.70405274    -2.29030
O1729       O  0.47267391  0.96948686  0.79823138    -0.73620
H1730       H  0.42031861  0.50567221  0.74851813     0.78380
H1731       H  0.02525661  0.52541487  0.81665904     0.79460
H1732       H  0.01060842  0.91149916  0.75817153     0.81690
H1733       H  0.03747976  0.51834967  0.68492502     0.79300
H1734       H  0.45657300  0.55576980  0.85916608     0.42330
H1735       H  0.00411095  0.96018328  0.86746246     0.41300
H1736       H  0.06889333  0.90700535  0.79247417     0.40980
H1737       H  0.06919954  0.89903155  0.72907693     0.38910
H1738       H  0.01620442  0.94845842  0.64484414     0.42050
H1739       H  0.49324129  0.53231121  0.64018673     0.36830
H1740       H  0.43186540  0.57601166  0.72527707     0.42950
H1741       H  0.40012043  0.55491682  0.78036883     0.39360
H1742       H  0.07749187  0.90383974  0.69201987     0.44280
H1743       H  0.45697998  0.51882458  0.63967821     0.43000
H1744       H  0.41621578  0.57931719  0.80424084     0.43140
H1745       H  0.02638970  0.99143013  0.86224806     0.43500
C1746       C  0.36075049  0.48368569  0.68069214     0.03050
C1747       C  0.34159341  0.45746590  0.69186646    -0.13100
C1748       C  0.32791042  0.43958274  0.66748834     0.00550
C1749       C  0.30750070  0.45832113  0.64835574    -0.11630
C1750       C  0.31908518  0.48870912  0.63645811     0.03040
C1751       C  0.34874257  0.50040941  0.65186799    -0.11050
H1752       H  0.34865676  0.44421228  0.71307582     0.08630
H1753       H  0.28880606  0.44571426  0.63540497     0.06160
H1754       H  0.36301375  0.51978987  0.64068667     0.06010
C1755       C  0.97880152  0.84806236  0.68676524     0.03050
C1756       C  0.94721017  0.85129151  0.67570507    -0.13100
C1757       C  0.94440002  0.84797236  0.64306350     0.00550
C1758       C  0.95321377  0.81783793  0.63273394    -0.11630
C1759       C  0.98525805  0.80780878  0.63802305     0.03040
C1760       C  0.99929738  0.82434999  0.66691595    -0.11050
H1761       H  0.92987850  0.86761660  0.68686298     0.08630
H1762       H  0.93932587  0.80871018  0.61327131     0.06160
H1763       H  0.02501087  0.82224326  0.67120673     0.06010
C1764       C  0.14068063  0.50173332  0.68754681     0.03050
C1765       C  0.15831478  0.52750652  0.70096682    -0.13100
C1766       C  0.17677498  0.54541369  0.67867698     0.00550
C1767       C  0.19940076  0.52482909  0.66305856    -0.11630
C1768       C  0.18578761  0.49908312  0.64542243     0.03040
C1769       C  0.15467002  0.48714195  0.65843576    -0.11050
H1770       H  0.14883258  0.54002564  0.72210358     0.08630
H1771       H  0.22347834  0.53408853  0.65664793     0.06160
H1772       H  0.14059299  0.46996913  0.64492934     0.06010
C1773       C  0.48518108  0.85462766  0.82253965     0.03050
C1774       C  0.51797653  0.84551561  0.81747208    -0.13100
C1775       C  0.53310297  0.83228621  0.84384341     0.00550
C1776       C  0.51575681  0.80580770  0.85657983    -0.11630
C1777       C  0.48214633  0.80971549  0.86422023     0.03040
C1778       C  0.46629730  0.83592776  0.84692755    -0.11050
H1779       H  0.53342617  0.85938867  0.80061453     0.08630
H1780       H  0.52951567  0.78861902  0.87020324     0.06160
H1781       H  0.44263928  0.84424697  0.85531221     0.06010
C1782       C  0.13802041  0.50183264  0.81837050     0.03050
C1783       C  0.15820410  0.52733986  0.80702792    -0.13100
C1784       C  0.17591305  0.54374323  0.83029203     0.00550
C1785       C  0.19384745  0.52368035  0.85034121    -0.11630
C1786       C  0.17942570  0.49487561  0.86265317     0.03040
C1787       C  0.14924928  0.48492117  0.84695658    -0.11050
H1788       H  0.15084928  0.54118590  0.78631450     0.08630
H1789       H  0.21343323  0.53467862  0.86343183     0.06160
H1790       H  0.13360527  0.46617068  0.85687750     0.06010
C1791       C  0.01131196  0.63518999  0.81826006     0.03050
C1792       C  0.04374890  0.64673789  0.81973144    -0.13100
C1793       C  0.05113592  0.67170942  0.84089568     0.00550
C1794       C  0.02733930  0.69612540  0.84336515    -0.11630
C1795       C  0.99515335  0.68594896  0.85270930     0.03040
C1796       C  0.98657009  0.65469221  0.83696961    -0.11050
H1797       H  0.06359877  0.63144093  0.81175740     0.08630
H1798       H  0.03585452  0.71873963  0.85324297     0.06160
H1799       H  0.96246415  0.64449934  0.84140352     0.06010
C1800       C  0.35914374  0.97209785  0.81331046     0.03050
C1801       C  0.34886252  0.00289782  0.80357451    -0.13100
C1802       C  0.33954662  0.02390310  0.82846630     0.00550
C1803       C  0.31583029  0.01064268  0.84944991    -0.11630
C1804       C  0.31958960  0.97870630  0.86092116     0.03040
C1805       C  0.34351555  0.95930970  0.84312586    -0.11050
H1806       H  0.36075949  0.01376317  0.78235601     0.08630
H1807       H  0.30050058  0.02728689  0.86274841     0.06160
H1808       H  0.35157978  0.93687686  0.85339290     0.06010
O1809       O  0.18894593  0.97256394  0.59650220    -0.75370
O1810       O  0.21806275  0.51772785  0.59900582    -0.54280
C1811       C  0.19868241  0.49511469  0.61046440     0.78360
O1812       O  0.30191703  0.90936539  0.49882442    -0.59970
O1813       O  0.27912787  0.89036916  0.95292558    -0.53000
C1814       C  0.29696737  0.88456801  0.97737540     0.70370
O1815       O  0.30966722  0.97229938  0.58578061    -0.74530
O1816       O  0.28761546  0.52189436  0.59560320    -0.55100
C1817       C  0.30581556  0.49673062  0.60245389     0.76370
O1818       O  0.19064075  0.89754575  0.52294308    -0.59680
O1819       O  0.20937746  0.89356871  0.96926620    -0.52800
C1820       C  0.19048131  0.88306460  0.99341852     0.72960
Zr1821     Zr  0.20062644  0.95484670  0.53993685     2.54710
O1822       O  0.20519000  0.90823553  0.57574376    -0.80240
O1823       O  0.14226694  0.95813950  0.54899660    -0.93660
Zr1824     Zr  0.29435704  0.95847231  0.53178526     2.64680
O1825       O  0.27985454  0.91697678  0.57121018    -0.98610
O1826       O  0.35085535  0.97770124  0.53558561    -0.80680
O1827       O  0.24858830  0.97947956  0.55910317    -0.84030
O1828       O  0.24670191  0.93634066  0.51063845    -2.18740
O1829       O  0.18650300  0.50936044  0.91763808    -0.67420
O1830       O  0.21479983  0.94906987  0.89927287    -0.51990
C1831       C  0.19894025  0.97455775  0.89067437     0.71350
O1832       O  0.28048975  0.58095083  0.98807829    -0.60330
O1833       O  0.28237660  0.58653859  0.53888132    -0.52310
C1834       C  0.28732393  0.59770030  0.50968628     0.73150
O1835       O  0.31043814  0.49933557  0.91593299    -0.71730
O1836       O  0.28512236  0.94954139  0.90333050    -0.50400
C1837       C  0.30443649  0.97372907  0.89507817     0.74530
O1838       O  0.19109243  0.58318152  0.98792032    -0.67060
O1839       O  0.21544249  0.58628589  0.53438247    -0.54250
C1840       C  0.19626095  0.59800150  0.51232633     0.72910
Zr1841     Zr  0.20278022  0.52594233  0.97200438     2.77540
O1842       O  0.23295479  0.56249024  0.93615129    -0.97800
O1843       O  0.14638291  0.53142494  0.97507168    -0.78630
Zr1844     Zr  0.29358014  0.52493302  0.96700296     2.70070
O1845       O  0.30008719  0.55736058  0.91823532    -0.79870
O1846       O  0.35084234  0.51859132  0.97461023    -0.98960
Zr1847     Zr  0.24844601  0.53606950  0.54904482     2.21500
Zr1848     Zr  0.24510009  0.94075607  0.95117564     2.11130
O1849       O  0.24700481  0.50117902  0.94507369    -2.47640
O1850       O  0.24887783  0.54711700  0.99470741    -0.79670
O1851       O  0.19725286  0.96587892  0.97792183    -0.71860
O1852       O  0.29350771  0.51283387  0.52118334    -2.32820
O1853       O  0.19976028  0.51313088  0.52595396    -2.29030
O1854       O  0.29234509  0.96596352  0.97413078    -0.73620
H1855       H  0.24729324  0.91353976  0.51461396     0.78380
H1856       H  0.31210835  0.52182280  0.53144579     0.79460
H1857       H  0.24768945  0.50618098  0.92228729     0.81690
H1858       H  0.18096713  0.52300485  0.53610312     0.79300
H1859       H  0.35316966  0.99376898  0.55295205     0.42330
H1860       H  0.35483394  0.49586199  0.96871686     0.41300
H1861       H  0.28779700  0.57745240  0.92174841     0.40980
H1862       H  0.22509072  0.55763644  0.91452033     0.38910
H1863       H  0.14151660  0.51651692  0.95749473     0.42050
H1864       H  0.13939515  0.97883725  0.56030864     0.36830
H1865       H  0.20658496  0.91642744  0.59805409     0.42950
H1866       H  0.26375988  0.92668283  0.58641827     0.39360
H1867       H  0.22666755  0.58484157  0.94105904     0.44280
H1868       H  0.13704740  0.94167737  0.56584807     0.43000
H1869       H  0.26786754  0.89954912  0.56042449     0.43140
H1870       H  0.36020831  0.53089706  0.95616574     0.43500
O1871       O  0.47542706  0.77081589  0.59112667    -0.75370
O1872       O  0.02801643  0.78127362  0.59811132    -0.54280
C1873       C  0.99794348  0.78589841  0.60843449     0.78360
O1874       O  0.40554304  0.67476883  0.51960017    -0.59970
O1875       O  0.39890059  0.70436323  0.97410783    -0.53000
C1876       C  0.38846232  0.68445498  0.99710430     0.70370
O1877       O  0.48665146  0.68053136  0.58669677    -0.74530
O1878       O  0.03278433  0.70913414  0.59844255    -0.55100
C1879       C  0.00936375  0.68869698  0.60651326     0.76370
O1880       O  0.41228251  0.79204764  0.49893040    -0.59680
O1881       O  0.39691826  0.77359496  0.95497734    -0.52800
C1882       C  0.39014951  0.79074435  0.98014453     0.72960
Zr1883     Zr  0.46001386  0.78356124  0.53412047     2.54710
O1884       O  0.41030523  0.78825629  0.56722341    -0.80240
O1885       O  0.47335072  0.83729752  0.55404239    -0.93660
Zr1886     Zr  0.46209707  0.69194613  0.53387147     2.64680
O1887       O  0.42127546  0.69995021  0.57685157    -0.98610
O1888       O  0.46917405  0.63516985  0.53790479    -0.80680
O1889       O  0.48452021  0.73861590  0.55687296    -0.84030
O1890       O  0.43816367  0.73700451  0.50963213    -2.18740
O1891       O  0.99453037  0.80607420  0.91562358    -0.67420
O1892       O  0.45281304  0.77521037  0.90505612    -0.51990
C1893       C  0.47455405  0.79746714  0.89876879     0.71350
O1894       O  0.08563757  0.68447516  0.98439483    -0.60330
O1895       O  0.08873250  0.70831303  0.53051558    -0.52310
C1896       C  0.10052046  0.68806467  0.50881936     0.73150
O1897       O  0.00929222  0.70409073  0.90679902    -0.71730
O1898       O  0.45595177  0.70555992  0.90187226    -0.50400
C1899       C  0.48490447  0.69984308  0.88967396     0.74530
O1900       O  0.07326714  0.79335705  0.99764483    -0.67060
O1901       O  0.09577512  0.77601354  0.53980048    -0.54250
C1902       C  0.10175194  0.78999510  0.51212196     0.72910
Zr1903     Zr  0.02344106  0.79242355  0.96602848     2.77540
O1904       O  0.06591971  0.78386212  0.92418562    -0.97800
O1905       O  0.03018665  0.84780348  0.94576032    -0.78630
Zr1906     Zr  0.03044239  0.70145237  0.96436696     2.70070
O1907       O  0.07913633  0.70038528  0.92880356    -0.79870
O1908       O  0.02025783  0.64567153  0.97527403    -0.98960
Zr1909     Zr  0.04250057  0.74511975  0.54859815     2.21500
Zr1910     Zr  0.44655169  0.73902761  0.95336591     2.11130
O1911       O  0.00279863  0.74621856  0.94348855    -2.47640
O1912       O  0.04914283  0.74815662  0.99026886    -0.79670
O1913       O  0.46840664  0.78510311  0.98111843    -0.71860
O1914       O  0.01973566  0.69816719  0.52367422    -2.32820
O1915       O  0.01740032  0.79140004  0.52210267    -2.29030
O1916       O  0.47458573  0.69319574  0.97512470    -0.73620
H1917       H  0.41532286  0.73668186  0.51583268     0.78380
H1918       H  0.03004610  0.68009885  0.53369893     0.79460
H1919       H  0.00789290  0.75235379  0.92152321     0.81690
H1920       H  0.02705655  0.81076095  0.53051801     0.79300
H1921       H  0.47634083  0.63154169  0.56012253     0.42330
H1922       H  0.00483733  0.63878313  0.95887788     0.41300
H1923       H  0.09130731  0.72051588  0.93328467     0.40980
H1924       H  0.06050053  0.76362314  0.91299590     0.38910
H1925       H  0.05154005  0.84847821  0.93398298     0.42050
H1926       H  0.49162630  0.84738600  0.54147210     0.36830
H1927       H  0.40842331  0.76799146  0.57983929     0.42950
H1928       H  0.43121460  0.71610832  0.59110278     0.39360
H1929       H  0.06311646  0.80087266  0.90772592     0.44280
H1930       H  0.48347298  0.83283430  0.57476498     0.43000
H1931       H  0.40305372  0.71150416  0.56714731     0.43140
H1932       H  0.04187777  0.63730157  0.96879407     0.43500
C1933       C  0.17967309  0.63157704  0.51870436     0.03050
C1934       C  0.18694400  0.64648538  0.54837964    -0.13100
C1935       C  0.16399563  0.66748675  0.56280017     0.00550
C1936       C  0.15035575  0.68861715  0.54121589    -0.11630
C1937       C  0.13509221  0.67437253  0.51499261     0.03040
C1938       C  0.15149833  0.64547749  0.50219963    -0.11050
H1939       H  0.20388956  0.63513350  0.56415856     0.08630
H1940       H  0.14123100  0.71092958  0.55119361     0.06160
H1941       H  0.14131942  0.63295214  0.48195027     0.06010
C1942       C  0.18088132  0.84751473  0.49174485     0.03050
C1943       C  0.17825661  0.84025225  0.45871871    -0.13100
C1944       C  0.13477325  0.83510743  0.95132635     0.00550
C1945       C  0.13504004  0.80626486  0.46492658    -0.11630
C1946       C  0.13458161  0.80540336  0.49909655     0.03040
C1947       C  0.15810174  0.82832694  0.51347914    -0.11050
H1948       H  0.17946957  0.85724096  0.93759055     0.08630
H1949       H  0.11954221  0.79061984  0.45126499     0.06160
H1950       H  0.15562758  0.83422181  0.53885812     0.06010
C1951       C  0.35169423  0.67061152  0.49378784     0.03050
C1952       C  0.33739718  0.67840122  0.46427255    -0.13100
C1953       C  0.32287908  0.65254174  0.44906821     0.00550
C1954       C  0.29659000  0.64102576  0.46858107    -0.11630
C1955       C  0.30374713  0.63080953  0.50045751     0.03040
C1956       C  0.33353573  0.64589253  0.51320650    -0.11050
H1957       H  0.34758783  0.69722392  0.44867181     0.08630
H1958       H  0.27647907  0.63008097  0.45620336     0.06160
H1959       H  0.34366586  0.63689010  0.53521390     0.06010
C1960       C  0.35759868  0.80860739  0.98711134     0.03050
C1961       C  0.35313224  0.81269429  0.02075071    -0.13100
C1962       C  0.34806578  0.84412583  0.03017102     0.00550
C1963       C  0.31714725  0.85069107  0.01980331    -0.11630
C1964       C  0.31385474  0.85223959  0.98583562     0.03040
C1965       C  0.33706132  0.83067111  0.96791164    -0.11050
H1966       H  0.36331547  0.79637104  0.03793670     0.08630
H1967       H  0.30075283  0.86295344  0.03642397     0.06160
H1968       H  0.34127447  0.83334941  0.94210131     0.06010
C1969       C  0.38645213  0.89830530  0.96841504    -0.20390
C1970       C  0.41948380  0.89339350  0.97092046    -0.06950
C1971       C  0.43601002  0.86581210  0.49035528     0.13910
C1972       C  0.41268970  0.85574089  0.51385907    -0.20440
C1973       C  0.37515320  0.86712562  0.01749645    -0.06960
C1974       C  0.36796494  0.89302933  0.99683490     0.13900
C1975       C  0.35863508  0.92295342  0.01280988    -0.23790
H1976       H  0.37933838  0.91789979  0.95273584     0.15190
H1977       H  0.41823439  0.83678567  0.53038757     0.15220
C1978       C  0.46653176  0.84814376  0.48403402    -0.23740
H1979       H  0.38096132  0.93396847  0.02230723     0.05430
H1980       H  0.34782438  0.91994802  0.52589183     0.08660
H1981       H  0.34804436  0.93971456  0.99510018     0.08660
H1982       H  0.48854457  0.86248500  0.48861716     0.08640
H1983       H  0.46464278  0.84634999  0.95990658     0.08640
H1984       H  0.46706696  0.82795872  0.50041175     0.05420
C1985       C  0.40734817  0.62595936  0.94740900    -0.20390
C1986       C  0.40170587  0.60268151  0.97211569    -0.06950
C1987       C  0.36422107  0.58693803  0.47685174     0.13910
C1988       C  0.34369733  0.59664134  0.45254434    -0.20440
C1989       C  0.34889770  0.62921103  0.94104231    -0.06960
C1990       C  0.38087119  0.63951180  0.93162904     0.13900
C1991       C  0.38674912  0.66522095  0.90633330    -0.23790
H1992       H  0.43178151  0.63409253  0.94113548     0.15190
H1993       H  0.32095268  0.58519389  0.45076070     0.15220
C1994       C  0.35082244  0.56716328  0.50523207    -0.23740
H1995       H  0.39827888  0.68668504  0.91698193     0.05430
H1996       H  0.40313902  0.68186640  0.41755366     0.08660
H1997       H  0.40321057  0.65598906  0.88676048     0.08660
H1998       H  0.34929746  0.58181698  0.52749472     0.08640
H1999       H  0.37390204  0.55153824  0.01567220     0.08640
H2000       H  0.32741819  0.55762334  0.49880935     0.05420
C2001       C  0.12857028  0.89928737  0.49930391    -0.20390
C2002       C  0.13251433  0.92626697  0.47954142    -0.06950
C2003       C  0.12460803  0.92021010  0.95471888     0.13910
C2004       C  0.12064844  0.89025043  0.93981041    -0.20440
C2005       C  0.12603016  0.86364016  0.45347972    -0.06960
C2006       C  0.11493640  0.87249878  0.48515495     0.13900
C2007       C  0.08421941  0.86046124  0.50120616    -0.23790
H2008       H  0.12306696  0.90277826  0.52491820     0.15190
H2009       H  0.12995980  0.88701760  0.91525038     0.15220
C2010       C  0.13535129  0.94684960  0.93356379    -0.23740
H2011       H  0.06707954  0.88038995  0.50451492     0.05430
H2012       H  0.08865907  0.85007258  0.52538060     0.08660
H2013       H  0.07247832  0.84377157  0.48541715     0.08660
H2014       H  0.14282966  0.96820619  0.94712440     0.08640
H2015       H  0.11518974  0.95209687  0.91744098     0.08640
H2016       H  0.15654130  0.93861872  0.91891938     0.05420
C2017       C  0.08180127  0.64925086  0.57576564    -0.20390
C2018       C  0.08847996  0.62062768  0.55830449    -0.06950
C2019       C  0.11873055  0.60609392  0.56319743     0.13910
C2020       C  0.13797522  0.61927713  0.58689389    -0.20440
C2021       C  0.13966592  0.65263632  0.58715690    -0.06960
C2022       C  0.10797429  0.66577657  0.59077081     0.13900
C2023       C  0.10312786  0.69703058  0.60809943    -0.23790
H2024       H  0.05784791  0.65926173  0.57579036     0.15190
H2025       H  0.13023021  0.61048644  0.61050029     0.15220
C2026       C  0.13205247  0.57963864  0.54236277    -0.23740
H2027       H  0.12643932  0.70602893  0.61772706     0.05430
H2028       H  0.07643739  0.68148844  0.11949467     0.08660
H2029       H  0.09397795  0.71559834  0.59149825     0.08660
H2030       H  0.11494097  0.55482259  0.02141952     0.08640
H2031       H  0.15600649  0.57215661  0.54993855     0.08640
H2032       H  0.13347628  0.58694160  0.51673214     0.05420
C2033       C  0.39782118  0.52263668  0.84526120    -0.20390
C2034       C  0.36774867  0.03870908  0.84569046    -0.06950
C2035       C  0.36429898  0.06008751  0.87169399     0.13910
C2036       C  0.38369609  0.05462516  0.89897088    -0.20440
C2037       C  0.40050499  0.02513475  0.90197082    -0.06960
C2038       C  0.40804066  0.50617723  0.87189435     0.13900
C2039       C  0.42707881  0.47520227  0.86840214    -0.23790
H2040       H  0.41611835  0.53048843  0.82830372     0.15190
H2041       H  0.38696856  0.07279945  0.91655136     0.15220
C2042       C  0.34467091  0.08999249  0.86798393    -0.23740
H2043       H  0.43386690  0.46467220  0.89184007     0.05430
H2044       H  0.44422632  0.97634858  0.85980805     0.08660
H2045       H  0.41205790  0.45631871  0.85730319     0.08660
H2046       H  0.32622673  0.09223838  0.88771683     0.08640
H2047       H  0.33289260  0.59605914  0.89087429     0.08640
H2048       H  0.36108509  0.11127056  0.86808983     0.05420
C2049       C  0.07873134  0.61342071  0.90328688    -0.20390
C2050       C  0.04515833  0.60334587  0.90640785    -0.06950
C2051       C  0.52326217  0.62562207  0.89817735     0.13910
C2052       C  0.53502220  0.65576102  0.89594856    -0.20440
C2053       C  0.05992222  0.65898984  0.87333242    -0.06960
C2054       C  0.08624104  0.63927178  0.88107902     0.13900
C2055       C  0.12025865  0.64996957  0.87270070    -0.23790
H2056       H  0.09684514  0.60398558  0.91867624     0.15190
H2057       H  0.54053426  0.66389186  0.91990582     0.15220
C2058       C  0.48679892  0.61854000  0.90247443    -0.23740
H2059       H  0.13721635  0.63792668  0.88882893     0.05430
H2060       H  0.12290687  0.67632064  0.87655292     0.08660
H2061       H  0.12640165  0.64437568  0.84704732     0.08660
H2062       H  0.48018184  0.60714605  0.92604969     0.08640
H2063       H  0.47918079  0.60191060  0.88323912     0.08640
H2064       H  0.47213684  0.64052328  0.90140324     0.05420
C2065       C  0.13504098  0.07342525  0.84527588    -0.20390
C2066       C  0.15803908  0.57120385  0.84691638    -0.06950
C2067       C  0.16492904  0.57807175  0.87905519     0.13910
C2068       C  0.14346037  0.56583551  0.90390046    -0.20440
C2069       C  0.11303186  0.55168281  0.89590777    -0.06960
C2070       C  0.10841187  0.07729687  0.86775991     0.13900
C2071       C  0.07507279  0.07651825  0.85350908    -0.23790
H2072       H  0.13258275  0.07968758  0.82006179     0.15190
H2073       H  0.14950339  0.56931875  0.92881853     0.15220
C2074       C  0.19165574  0.60201223  0.88511436    -0.23740
H2075       H  0.07710800  0.07724525  0.82675336     0.05430
H2076       H  0.05014414  0.56021630  0.86543100     0.08660
H2077       H  0.06181483  0.05386783  0.85962987     0.08660
H2078       H  0.21561311  0.59260370  0.87678687     0.08640
H2079       H  0.11269858  0.01125177  0.87212221     0.08640
H2080       H  0.18785927  0.62425577  0.87080891     0.05420
C2081       C  0.51486416  0.86996362  0.88707277    -0.20390
C2082       C  0.54098221  0.85852632  0.86753690    -0.06950
C2083       C  0.07238519  0.86848664  0.85915982     0.13910
C2084       C  0.07684514  0.89773808  0.87646857    -0.20440
C2085       C  0.53626643  0.92265685  0.88841406    -0.06960
C2086       C  0.50942677  0.90218990  0.88977088     0.13900
C2087       C  0.47497960  0.91407412  0.89491886    -0.23790
H2088       H  0.49477562  0.85583185  0.89526798     0.15190
H2089       H  0.10046936  0.90950337  0.87644168     0.15220
C2090       C  0.10013713  0.85407767  0.83990656    -0.23740
H2091       H  0.45708266  0.89410414  0.89927900     0.05430
H2092       H  0.46805499  0.92673705  0.87266541     0.08660
H2093       H  0.47277815  0.93101285  0.91526497     0.08660
H2094       H  0.09383226  0.85242591  0.81409489     0.08640
H2095       H  0.10499574  0.82954427  0.84927952     0.08640
H2096       H  0.12270689  0.86891127  0.84154724     0.05420
C2097       C  0.13935973  0.54218596  0.60536827    -0.20390
C2098       C  0.10606663  0.53935703  0.61577132    -0.06950
C2099       C  0.10026528  0.06109521  0.64354055     0.13910
C2100       C  0.12294166  0.07104102  0.66672961    -0.20440
C2101       C  0.15506622  0.56422555  0.65610367    -0.06960
C2102       C  0.16172382  0.56079108  0.62322082     0.13900
C2103       C  0.19212425  0.57683429  0.60905190    -0.23790
H2104       H  0.14758614  0.53159396  0.58296715     0.15190
H2105       H  0.11429722  0.07899377  0.69034596     0.15220
C2106       C  0.06637109  0.07245157  0.64652385    -0.23740
H2107       H  0.19554331  0.57005222  0.58378502     0.05430
H2108       H  0.20614130  0.07382402  0.59365312     0.08660
H2109       H  0.19059607  0.60330074  0.61134029     0.08660
H2110       H  0.06035756  0.08558698  0.62410607     0.08880
H2111       H  0.06524255  0.59344496  0.66277423     0.08640
H2112       H  0.05002707  0.05160918  0.65033491     0.05420
C2113       C  0.99374323  0.88332952  0.62708170    -0.20390
C2114       C  0.96082067  0.87368868  0.62251974    -0.06950
C2115       C  0.44737210  0.88176856  0.59698600     0.13910
C2116       C  0.46538952  0.90076988  0.57462206    -0.20440
C2117       C  0.99725865  0.90980363  0.57711617    -0.06960
C2118       C  0.01241605  0.89936265  0.60426373     0.13900
C2119       C  0.04916452  0.90218769  0.60785406    -0.23790
H2120       H  0.00783168  0.87686410  0.64654602     0.15190
H2121       H  0.45466573  0.90613176  0.55176258     0.15220
C2122       C  0.41387993  0.87011706  0.58986123    -0.23740
H2123       H  0.05723534  0.89232878  0.63121963     0.05430
H2124       H  0.05732495  0.92772333  0.60627680     0.08660
H2125       H  0.06180980  0.88856703  0.58820406     0.08660
H2126       H  0.39823870  0.87211048  0.61185379     0.08640
H2127       H  0.41424407  0.84442671  0.58365654     0.08640
H2128       H  0.40356834  0.88401453  0.57001376     0.05420
C2129       C  0.37789002  0.93702937  0.59073918    -0.20390
C2130       C  0.40075654  0.44711231  0.60792626    -0.06950
C2131       C  0.40875995  0.43531179  0.63916530     0.13910
C2132       C  0.38486875  0.41878632  0.65868102    -0.20440
C2133       C  0.35232112  0.41843698  0.64925868    -0.06960
C2134       C  0.35529136  0.91906295  0.61039558     0.13900
C2135       C  0.33487294  0.89252138  0.59728036    -0.23790
H2136       H  0.37535401  0.93736235  0.56545281     0.15190
H2137       H  0.38996295  0.41239706  0.68337072     0.15220
C2138       C  0.44137519  0.44038647  0.65293745    -0.23740
H2139       H  0.34564249  0.86876838  0.60233761     0.05430
H2140       H  0.32936236  0.38946755  0.57698425     0.08660
H2141       H  0.31063060  0.89189555  0.60982425     0.08660
H2142       H  0.46069319  0.43200699  0.63638705     0.08640
H2143       H  0.44993444  0.92339092  0.66898439     0.08640
H2144       H  0.44517911  0.46624002  0.65671300     0.05420
C2145       C  0.93982806  0.60024525  0.66113925    -0.20390
C2146       C  0.93150153  0.63236842  0.65885328    -0.06950
C2147       C  0.41202538  0.63621059  0.63212751     0.13910
C2148       C  0.41196879  0.61218699  0.60699709    -0.20440
C2149       C  0.93306374  0.58793868  0.60752746    -0.06960
C2150       C  0.95389165  0.58774954  0.63312061     0.13900
C2151       C  0.98888661  0.59630507  0.62290769    -0.23790
H2152       H  0.91785724  0.58671432  0.66747463     0.15190
H2153       H  0.39755752  0.61534438  0.58580514     0.15220
C2154       C  0.38859680  0.66365745  0.63196284    -0.23740
H2155       H  0.00540963  0.59304106  0.64210010     0.05430
H2156       H  0.99013243  0.62108573  0.61323964     0.08660
H2157       H  0.99954967  0.58099372  0.60365435     0.08660
H2158       H  0.40116108  0.68707763  0.63509942     0.08640
H2159       H  0.37062322  0.66046978  0.65240559     0.08640
H2160       H  0.37507219  0.66424512  0.60918978     0.05420
O2161       O  0.95829126  0.08507260  0.04612261    -0.86570
O2162       O  0.02031158  0.40468731  0.03331293    -0.86740
O2163       O  0.95662218  0.47613079  0.09388445    -0.88410
O2164       O  0.55335606  0.01728472  0.10129570    -0.87160
O2165       O  0.59291956  0.02557268  0.06151782    -0.86750
O2166       O  0.91807071  0.47961926  0.05512431    -0.88120
O2167       O  0.02815971  0.44929876  0.05945407    -0.86600
O2168       O  0.96354313  0.04396143  0.08153139    -0.86190
Zr2169     Zr  0.00676924  0.00540313  0.06477168     2.84310
O2170       O  0.54586163  0.48038880  0.03403550    -1.08160
O2171       O  0.97255544  0.03335549  0.03166897    -1.08890
C2172       C  0.95130567  0.07143828  0.07309305     1.06540
C2173       C  0.01489461  0.42127799  0.05803500     1.06480
C2174       C  0.92750367  0.47059846  0.08377995     1.09460
C2175       C  0.58287849  0.02668918  0.09115760     1.07240
H2176       H  0.96946790  0.45297072  0.03979529     0.32800
O2177       O  0.98263158  0.47016208  0.03082061    -1.29110
H2178       H  0.53635237  0.05582121  0.06515237     0.32470
O2179       O  0.52824712  0.04257458  0.04820980    -1.30790
O2180       O  0.53792303  0.43099452  0.44245965    -0.86570
O2181       O  0.53920700  0.08564046  0.45839655    -0.88060
O2182       O  0.92895997  0.44870257  0.48128701    -0.86640
O2183       O  0.61177058  0.47956576  0.99513472    -0.86690
O2184       O  0.56421223  0.08352139  0.00965158    -0.86400
O2185       O  0.92524598  0.05394152  0.48622336    -0.86210
O2186       O  0.95710414  0.52018562  0.41813030    -0.86580
O2187       O  0.56835648  0.02036873  0.40959109    -0.86040
O2188       O  0.91520095  0.51344159  0.45567240    -0.87110
O2189       O  0.59591820  0.04459771  0.44973356    -0.86260
O2190       O  0.97691363  0.41564120  0.97919690    -0.86660
O2191       O  0.95736714  0.09892077  0.48675883    -0.86380
O2192       O  0.54041207  0.10878490  0.53020644    -0.86030
O2193       O  0.57713548  0.43690020  0.98959905    -0.86440
O2194       O  0.52268736  0.47140463  0.40992104    -0.86740
O2195       O  0.52320298  0.05814887  0.41436723    -0.88080
Zr2196     Zr  0.52152700  0.44775767  0.99420085     2.83100
Zr2197     Zr  0.00422804  0.07560230  0.50855230     2.83500
Zr2198     Zr  0.94214840  0.50028935  0.50396562     2.84090
Zr2199     Zr  0.56759379  0.02418898  0.00913830     2.83360
Zr2200     Zr  0.50565178  0.51628329  0.44277004     2.84220
O2201       O  0.53880005  0.04136945  0.47574833    -1.08650
O2202       O  0.98024830  0.47630547  0.46746220    -1.08150
C2203       C  0.53477219  0.44354907  0.41475519     1.06510
C2204       C  0.53888846  0.08073073  0.42783716     1.09130
C2205       C  0.94442524  0.42244247  0.47547727     1.06680
C2206       C  0.60531573  0.45003841  0.98871720     1.07040
C2207       C  0.55910373  0.10165409  0.03412487     1.06630
C2208       C  0.93056672  0.08447844  0.48182179     1.06180
C2209       C  0.92676003  0.52055511  0.42738187     1.06600
C2210       C  0.59214924  0.03773825  0.41932954     1.06120
H2211       H  0.97455196  0.05553300  0.45256503     0.32790
O2212       O  0.98512789  0.04210582  0.46785370    -1.29750
H2213       H  0.56169026  0.48611498  0.45270445     0.32820
O2214       O  0.54543715  0.49099300  0.46923299    -1.31130
C2215       C  0.50890832  0.13347555  0.18816575     0.03050
C2216       C  0.47707038  0.14350490  0.19673944    -0.13100
C2217       C  0.45738549  0.15587378  0.17248131     0.00550
C2218       C  0.47243244  0.17743555  0.15074167    -0.11630
C2219       C  0.50546100  0.17392149  0.14092264     0.03040
C2220       C  0.52380611  0.15009575  0.15942736    -0.11050
H2221       H  0.46436083  0.13072153  0.21644809     0.08630
H2222       H  0.45683994  0.19171136  0.13603576     0.06160
H2223       H  0.54700336  0.14218520  0.14959762     0.06010
O2224       O  0.99089912  0.07678924  0.19687782    -0.75370
O2225       O  0.53949230  0.08988206  0.21896909    -0.54280
C2226       C  0.51506577  0.09834444  0.20136196     0.78360
O2227       O  0.90709904  0.99757763  0.30775765    -0.59970
O2228       O  0.89860527  0.43917559  0.28281667    -0.53000
C2229       C  0.89193328  0.46501183  0.29812122     0.70370
O2230       O  0.97319668  0.08682508  0.29967764    -0.74530
O2231       O  0.53236203  0.08796833  0.28676843    -0.55100
C2232       C  0.50709376  0.10067992  0.30253536     0.76370
O2233       O  0.91141107  0.00697924  0.18556729    -0.59680
O2234       O  0.90449366  0.46191569  0.21606975    -0.52800
C2235       C  0.89453064  0.48536948  0.19691193     0.72960
Zr2236     Zr  0.96643028  0.02166523  0.20175336     2.54710
O2237       O  0.91644401  0.05274326  0.20554676    -0.80240
O2238       O  0.97901047  0.01707934  0.14473628    -0.93660
Zr2239     Zr  0.95931300  0.02795981  0.29453646     2.64680
O2240       O  0.91516839  0.06655993  0.29519226    -0.98610
O2241       O  0.97525417  0.03715528  0.34826914    -0.80680
O2242       O  0.98610013  0.04747712  0.24712022    -0.84030
O2243       O  0.94051372  0.00100806  0.24902141    -2.18740
O2244       O  0.51568885  0.39473294  0.19660594    -0.67420
O2245       O  0.96562720  0.39111777  0.22314305    -0.51990
C2246       C  0.98957006  0.37744616  0.20667790     0.71350
O2247       O  0.58713465  0.47394897  0.30858270    -0.60330
O2248       O  0.59257919  0.02190281  0.28603344    -0.52310
C2249       C  0.60173010  0.99827358  0.30481626     0.73150
O2250       O  0.50189797  0.40909770  0.31604795    -0.71730
O2251       O  0.95678630  0.39498213  0.28937225    -0.50400
C2252       C  0.97903188  0.38833253  0.30991498     0.74530
O2253       O  0.58961782  0.47289788  0.19370273    -0.67060
O2254       O  0.59278291  0.02368255  0.21619367    -0.54250
C2255       C  0.60476169  0.00008308  0.19889525     0.72910
Zr2256     Zr  0.53425308  0.45275945  0.20488767     2.77540
O2257       O  0.57912700  0.41485967  0.20591837    -0.97800
O2258       O  0.53378377  0.46100853  0.14691805    -0.78630
Zr2259     Zr  0.52927529  0.46029990  0.29801750     2.70070
O2260       O  0.56983254  0.41907731  0.30404100    -0.79870
O2261       O  0.52329877  0.48339496  0.34956933    -0.98960
Zr2262     Zr  0.54531370  0.03789871  0.25191457     2.21500
Zr2263     Zr  0.95082125  0.44250761  0.25223072     2.11130
O2264       O  0.50853121  0.43361178  0.25302000    -2.47640
O2265       O  0.55335025  0.48108800  0.25032050    -0.79670
O2266       O  0.97730819  0.46513894  0.20515206    -0.71860
O2267       O  0.51644517  0.01591926  0.29833931    -2.32820
O2268       O  0.52563879  0.01014658  0.20511378    -2.29030
O2269       O  0.97164866  0.46938693  0.29964117    -0.73620
H2270       H  0.91765401  0.00589272  0.24841367     0.78380
H2271       H  0.52335291  0.02603064  0.31777864     0.79460
H2272       H  0.51324857  0.41102185  0.25536137     0.81690
H2273       H  0.53698981  0.01834653  0.18607152     0.79300
H2274       H  0.99247987  0.05382550  0.34589564     0.42330
H2275       H  0.50673532  0.46803137  0.35834001     0.41300
H2276       H  0.57194106  0.40903249  0.28245006     0.40980
H2277       H  0.57246061  0.39832416  0.22223834     0.38910
H2278       H  0.51076066  0.45877511  0.14135159     0.42050
H2279       H  0.99739657  0.03195245  0.14009102     0.36830
H2280       H  0.91971970  0.06763482  0.22379067     0.42950
H2281       H  0.90051666  0.05923745  0.27817377     0.39360
H2282       H  0.57885063  0.40353859  0.18493784     0.44280
H2283       H  0.95955820  0.02661630  0.13546408     0.43000
H2284       H  0.90280188  0.06251447  0.31568158     0.43140
H2285       H  0.54469144  0.47806788  0.35829109     0.43500
C2286       C  0.85918438  0.98019495  0.17847734     0.03050
C2287       C  0.84252507  0.95092264  0.18497708    -0.13100
C2288       C  0.83089050  0.93591420  0.15767057     0.00550
C2289       C  0.80825900  0.95561410  0.14278298    -0.11630
C2290       C  0.81809698  0.98755128  0.13406634     0.03040
C2291       C  0.84656319  0.99937242  0.15140878    -0.11050
H2292       H  0.85029803  0.93528533  0.20419446     0.08630
H2293       H  0.78921058  0.94371356  0.12970880     0.06160
H2294       H  0.85957512  0.02076598  0.14288911     0.06010
C2295       C  0.48096267  0.34520033  0.18713179     0.03050
C2296       C  0.44877890  0.34730241  0.17738684    -0.13100
C2297       C  0.44502707  0.34473195  0.14476934     0.00550
C2298       C  0.45430875  0.31509146  0.13347830    -0.11630
C2299       C  0.48664215  0.30554151  0.13813485     0.03040
C2300       C  0.50119151  0.32183726  0.16678345    -0.11050
H2301       H  0.43117043  0.36266280  0.18951561     0.08630
H2302       H  0.44042528  0.30628569  0.11383626     0.06160
H2303       H  0.52711683  0.32025486  0.17017713     0.06010
C2304       C  0.63927928  0.00435847  0.18575549     0.03050
C2305       C  0.65699301  0.02997384  0.19941090    -0.13100
C2306       C  0.67577888  0.04805455  0.17745050     0.00550
C2307       C  0.69815892  0.02755043  0.16138256    -0.11630
C2308       C  0.68432585  0.00246344  0.14322313     0.03040
C2309       C  0.65313387  0.99038418  0.15618074    -0.11050
H2310       H  0.64761140  0.04222318  0.22074899     0.08630
H2311       H  0.72252643  0.03627696  0.15542095     0.06160
H2312       H  0.63909374  0.97326914  0.14257315     0.06010
C2313       C  0.98525467  0.35358259  0.32093058     0.03050
C2314       C  0.01824434  0.34548621  0.31511030    -0.13100
C2315       C  0.03395469  0.33075764  0.34029626     0.00550
C2316       C  0.01720262  0.30329327  0.35147611    -0.11630
C2317       C  0.98370184  0.30627972  0.36016724     0.03040
C2318       C  0.96705291  0.33313029  0.34448926    -0.11050
H2319       H  0.03328273  0.36054997  0.29896634     0.08630
H2320       H  0.03154393  0.28542551  0.36356139     0.06160
H2321       H  0.94334571  0.34055187  0.35365435     0.06010
C2322       C  0.63603853  0.00038622  0.31895684     0.03050
C2323       C  0.65694976  0.02460504  0.30593520    -0.13100
C2324       C  0.67574251  0.04151743  0.32794848     0.00550
C2325       C  0.69319201  0.02173520  0.34865131    -0.11630
C2326       C  0.67753722  0.99434703  0.36263836     0.03040
C2327       C  0.64687788  0.98463183  0.34826226    -0.11050
H2328       H  0.64978084  0.03764619  0.28463708     0.08630
H2329       H  0.71338304  0.03253105  0.36105747     0.06160
H2330       H  0.63091531  0.96709443  0.36011796     0.06010
C2331       C  0.51049875  0.13497284  0.31886353     0.03050
C2332       C  0.54266580  0.14740642  0.31922608    -0.13100
C2333       C  0.55005532  0.17284941  0.33982840     0.00550
C2334       C  0.52550347  0.19646085  0.34329605    -0.11630
C2335       C  0.49383162  0.18531942  0.35335820     0.03040
C2336       C  0.48576764  0.15376126  0.33815733    -0.11050
H2337       H  0.56268395  0.13259842  0.31069498     0.08630
H2338       H  0.53356594  0.21925142  0.35315083     0.06160
H2339       H  0.46210644  0.14284583  0.34336097     0.06010
C2340       C  0.85790148  0.47310431  0.31174395     0.03050
C2341       C  0.84865001  0.50454788  0.30285627    -0.13100
C2342       C  0.83995146  0.52513520  0.32836719     0.00550
C2343       C  0.81547898  0.51193658  0.34842382    -0.11630
C2344       C  0.81877756  0.47976641  0.35938718     0.03040
C2345       C  0.84217391  0.46013734  0.34131122    -0.11050
H2346       H  0.86075244  0.51557874  0.28184228     0.08630
H2347       H  0.80034586  0.52857589  0.36197882     0.06160
H2348       H  0.85013261  0.43757101  0.35138786     0.06010
O2349       O  0.68975456  0.47339948  0.09505144    -0.75370
O2350       O  0.71764985  0.02075164  0.09680888    -0.54280
C2351       C  0.69788600  0.99833888  0.10843179     0.78360
O2352       O  0.80275115  0.41129744  0.99854163    -0.59970
O2353       O  0.78053161  0.39251233  0.45044029    -0.53000
C2354       C  0.79909525  0.38635413  0.47445650     0.70370
O2355       O  0.81096061  0.47575885  0.08445197    -0.74530
O2356       O  0.78764256  0.02266434  0.09373209    -0.55100
C2357       C  0.80519977  0.99705266  0.10040209     0.76370
O2358       O  0.69081647  0.39901048  0.02137972    -0.59680
O2359       O  0.71100774  0.39407180  0.46762938    -0.52800
C2360       C  0.69429531  0.38222906  0.49279090     0.72960
Zr2361     Zr  0.70131916  0.45599862  0.03858709     2.54710
O2362       O  0.70546914  0.40971267  0.07485711    -0.80240
O2363       O  0.64286593  0.46053362  0.04634843    -0.93660
Zr2364     Zr  0.79559025  0.46181333  0.03003908     2.64680
O2365       O  0.78166662  0.42123848  0.07041423    -0.98610
O2366       O  0.85181872  0.48269974  0.03274373    -0.80680
O2367       O  0.74912299  0.48146182  0.05734628    -0.84030
O2368       O  0.74800147  0.43834786  0.00959476    -2.18740
O2369       O  0.68491196  0.01056966  0.41697982    -0.67420
O2370       O  0.71309656  0.45568307  0.39774787    -0.51990
C2371       C  0.69894988  0.48273134  0.38997150     0.71350
O2372       O  0.78317748  0.07993151  0.48116274    -0.60330
O2373       O  0.78539249  0.08573662  0.03442238    -0.52310
C2374       C  0.79084254  0.09595701  0.00498106     0.73150
O2375       O  0.79448617  0.98966328  0.41180950    -0.71730
O2376       O  0.78430583  0.45070371  0.40115215    -0.50400
C2377       C  0.80410270  0.47454513  0.39345076     0.74530
O2378       O  0.69095597  0.08414631  0.48726586    -0.67060
O2379       O  0.71712041  0.08735011  0.03212136    -0.54250
C2380       C  0.69865159  0.09954113  0.00974607     0.72910
Zr2381     Zr  0.70258956  0.02737554  0.47099348     2.77540
O2382       O  0.73456020  0.06367434  0.43612950    -0.97800
O2383       O  0.64780782  0.04037831  0.47664462    -0.78630
Zr2384     Zr  0.79335383  0.02309564  0.46147803     2.70070
O2385       O  0.80411366  0.05453494  0.41208129    -0.79870
O2386       O  0.85239705  0.02019471  0.46335485    -0.98960
Zr2387     Zr  0.74959612  0.03716538  0.04641136     2.21500
Zr2388     Zr  0.74497020  0.44259438  0.44896699     2.11130
O2389       O  0.74448017  0.00058756  0.44296373    -2.47640
O2390       O  0.75037685  0.04702180  0.49119922    -0.79670
O2391       O  0.69740218  0.46759018  0.47605053    -0.71860
O2392       O  0.79443310  0.01336400  0.01798354    -2.32820
O2393       O  0.70028864  0.01475045  0.02442946    -2.29030
O2394       O  0.79265702  0.46674589  0.47236373    -0.73620
H2395       H  0.74845729  0.41555500  0.01374194     0.78380
H2396       H  0.81369828  0.02300705  0.02649475     0.79460
H2397       H  0.74285516  0.00598839  0.42045025     0.81690
H2398       H  0.68216154  0.02508356  0.03513734     0.79300
H2399       H  0.85356114  0.49859925  0.05034446     0.42330
H2400       H  0.85796272  0.99747481  0.46742886     0.41300
H2401       H  0.78953941  0.07332521  0.41282664     0.40980
H2402       H  0.72745939  0.05874516  0.41420945     0.38910
H2403       H  0.64297702  0.02421622  0.46009904     0.42050
H2404       H  0.63983613  0.48198297  0.05618418     0.36830
H2405       H  0.71089456  0.41812934  0.09635116     0.42950
H2406       H  0.76627662  0.43139706  0.08602169     0.39360
H2407       H  0.72781895  0.08598766  0.44066593     0.44280
H2408       H  0.63708982  0.44520887  0.06410199     0.43000
H2409       H  0.76872125  0.40409317  0.06030882     0.43140
H2410       H  0.86103542  0.02545046  0.44135581     0.43500
O2411       O  0.97411836  0.27060221  0.09385240    -0.75370
O2412       O  0.52951057  0.28054210  0.09793683    -0.54280
C2413       C  0.49939591  0.28456706  0.10816953     0.78360
O2414       O  0.90802773  0.17319211  0.01436868    -0.59970
O2415       O  0.90147939  0.20251620  0.47076767    -0.53000
C2416       C  0.88972321  0.18429761  0.49441929     0.70370
O2417       O  0.98638908  0.17870602  0.08336612    -0.74530
O2418       O  0.53530927  0.20829190  0.09793787    -0.55100
C2419       C  0.51176264  0.18789230  0.10604128     0.76370
O2420       O  0.90959250  0.29361532  0.00319931    -0.59680
O2421       O  0.89991396  0.27295297  0.45190642    -0.52800
C2422       C  0.89332460  0.29156811  0.47617587     0.72960
Zr2423     Zr  0.95788406  0.28276188  0.03720968     2.54710
O2424       O  0.90833315  0.28586570  0.07093532    -0.80240
O2425       O  0.96993559  0.33439336  0.06099908    -0.93660
Zr2426     Zr  0.96392670  0.19182453  0.02963278     2.64680
O2427       O  0.92286107  0.19567352  0.07281805    -0.98610
O2428       O  0.97896806  0.13701840  0.02682344    -0.80680
O2429       O  0.98449706  0.23726107  0.05595668    -0.84030
O2430       O  0.93738449  0.23732777  0.00992783    -2.18740
O2431       O  0.49554863  0.30483477  0.41721577    -0.67420
O2432       O  0.95388732  0.27214086  0.40193833    -0.51990
C2433       C  0.97725868  0.29237722  0.39444372     0.71350
O2434       O  0.58682050  0.18526233  0.48117764    -0.60330
O2435       O  0.59084333  0.20856824  0.03232038    -0.52310
C2436       C  0.60296810  0.18909777  0.01011392     0.73150
O2437       O  0.50781933  0.20306223  0.40735109    -0.71730
O2438       O  0.96408235  0.20315706  0.40079187    -0.50400
C2439       C  0.99061075  0.18779987  0.39164518     0.74530
O2440       O  0.57674445  0.29411339  0.49472278    -0.67060
O2441       O  0.59678111  0.27677262  0.03845592    -0.54250
C2442       C  0.60273351  0.29070073  0.01070109     0.72910
Zr2443     Zr  0.52389542  0.29390016  0.46827154     2.77540
O2444       O  0.56652990  0.29549550  0.42585685    -0.97800
O2445       O  0.52652211  0.35247018  0.46317917    -0.78630
Zr2446     Zr  0.53122789  0.20255865  0.46357082     2.70070
O2447       O  0.57876765  0.20635205  0.42656703    -0.79870
O2448       O  0.52464396  0.14641134  0.47500493    -0.98960
Zr2449     Zr  0.54401054  0.24513899  0.04838313     2.21500
Zr2450     Zr  0.94904621  0.23685277  0.45132475     2.11130
O2451       O  0.50383826  0.24762527  0.44375391    -2.47640
O2452       O  0.54962374  0.24882541  0.49040364    -0.79670
O2453       O  0.97170379  0.28332641  0.47701358    -0.71860
O2454       O  0.52171828  0.19798347  0.02382620    -2.32820
O2455       O  0.51803959  0.29106230  0.02193261    -2.29030
O2456       O  0.97358626  0.19163397  0.47739742    -0.73620
H2457       H  0.91459995  0.23601217  0.01625010     0.78380
H2458       H  0.53241036  0.18051768  0.03460180     0.79460
H2459       H  0.51011948  0.25231967  0.42166203     0.81690
H2460       H  0.52731781  0.31061325  0.03034720     0.79300
H2461       H  0.98909134  0.13367266  0.04785764     0.42330
H2462       H  0.50907557  0.13868784  0.45914218     0.41300
H2463       H  0.58877673  0.22762542  0.43097613     0.40980
H2464       H  0.56231858  0.27669119  0.41197227     0.38910
H2465       H  0.54414623  0.35715340  0.44687613     0.42050
H2466       H  0.99245777  0.33487466  0.06857241     0.36830
H2467       H  0.90427305  0.26368546  0.07907973     0.42950
H2468       H  0.93141191  0.21269361  0.08697355     0.39360
H2469       H  0.56186838  0.31442461  0.41226259     0.44280
H2470       H  0.95738134  0.32920096  0.08064584     0.43000
H2471       H  0.90349225  0.20562854  0.06353658     0.43140
H2472       H  0.54648381  0.13905343  0.46797418     0.43500
C2473       C  0.68356005  0.13379930  0.01592236     0.03050
C2474       C  0.69192840  0.14844682  0.04560811    -0.13100
C2475       C  0.66647686  0.16326837  0.06358278     0.00550
C2476       C  0.65120673  0.18617998  0.04498476    -0.11630
C2477       C  0.63725798  0.17499569  0.01644437     0.03040
C2478       C  0.65467104  0.14794605  0.00090683    -0.11050
H2479       H  0.71135781  0.13838636  0.05934224     0.08630
H2480       H  0.64136788  0.20689841  0.05740931     0.06160
H2481       H  0.64486837  0.13707168  0.97959192     0.06010
C2482       C  0.68101925  0.34925626  0.98994538     0.03050
C2483       C  0.67760963  0.34266030  0.95686439    -0.13100
C2484       C  0.64037353  0.33291036  0.45043607     0.00550
C2485       C  0.63580246  0.30716336  0.96359029    -0.11630
C2486       C  0.63553129  0.30627426  0.99770543     0.03040
C2487       C  0.65890947  0.32950877  0.01189755    -0.11050
H2488       H  0.68505430  0.35486280  0.43724567     0.08630
H2489       H  0.62083661  0.29096695  0.94994986     0.06160
H2490       H  0.65679705  0.33515250  0.03735584     0.06010
C2491       C  0.85362979  0.16981619  0.98949402     0.03050
C2492       C  0.83907918  0.17780308  0.96017901    -0.13100
C2493       C  0.82520622  0.15192134  0.94429892     0.00550
C2494       C  0.79950282  0.13897814  0.96354901    -0.11630
C2495       C  0.80684399  0.12896507  0.99543523     0.03040
C2496       C  0.83597306  0.14469496  0.00856982    -0.11050
H2497       H  0.84859003  0.19736903  0.94515358     0.08630
H2498       H  0.77989215  0.12739896  0.95095792     0.06160
H2499       H  0.84569862  0.13633884  0.03100083     0.06010
C2500       C  0.86067718  0.30990723  0.48275361     0.03050
C2501       C  0.85579391  0.31336384  0.51640970    -0.13100
C2502       C  0.85105351  0.34463749  0.52655593     0.00550
C2503       C  0.82032719  0.35191051  0.51609599    -0.11630
C2504       C  0.81695083  0.35405365  0.48212888     0.03040
C2505       C  0.84026653  0.33260476  0.46388458    -0.11050
H2506       H  0.86531364  0.29636941  0.53335395     0.08630
H2507       H  0.80380772  0.36367324  0.53303666     0.06160
H2508       H  0.84449594  0.33564710  0.43811582     0.06010
C2509       C  0.89208742  0.39859946  0.46621191    -0.20390
C2510       C  0.92490385  0.39336854  0.47012827    -0.06950
C2511       C  0.93175625  0.36703220  0.99870077     0.13910
C2512       C  0.90762337  0.35641163  0.02114810    -0.20440
C2513       C  0.87866932  0.36753790  0.51491410    -0.06960
C2514       C  0.87232264  0.39336866  0.49377505     0.13900
C2515       C  0.86182841  0.42339841  0.50895389    -0.23790
H2516       H  0.88579201  0.41824503  0.45023218     0.15190
H2517       H  0.91277412  0.33752735  0.03798159     0.15220
C2518       C  0.96361658  0.35159398  0.99602739    -0.23740
H2519       H  0.88364189  0.43536545  0.51859242     0.05430
H2520       H  0.84493019  0.42214840  0.03098158     0.08660
H2521       H  0.85101800  0.43955521  0.49080754     0.08660
H2522       H  0.98284489  0.36659131  0.00652269     0.08640
H2523       H  0.96607387  0.34329045  0.45782091     0.08640
H2524       H  0.96267022  0.32948426  0.00938272     0.05420
C2525       C  0.91117693  0.12760010  0.44453926    -0.20390
C2526       C  0.90466471  0.10263173  0.46734803    -0.06950
C2527       C  0.87242816  0.08897935  0.96942714     0.13910
C2528       C  0.84935222  0.09716447  0.94702088    -0.20440
C2529       C  0.85327614  0.12936013  0.43389391    -0.06960
C2530       C  0.88549905  0.14066046  0.42697620     0.13900
C2531       C  0.89221762  0.16688453  0.40227113    -0.23790
H2532       H  0.93586408  0.13630612  0.43990160     0.15190
H2533       H  0.82674299  0.08504770  0.94877635     0.15220
C2534       C  0.86269394  0.07121807  0.00071824    -0.23740
H2535       H  0.90990277  0.15852831  0.38338204     0.05430
H2536       H  0.89773562  0.18794751  0.91218001     0.08660
H2537       H  0.86954138  0.17388172  0.39030613     0.08660
H2538       H  0.86595576  0.08709736  0.02176687     0.08640
H2539       H  0.87534727  0.04960386  0.50723639     0.08640
H2540       H  0.83762484  0.06275440  0.00022683     0.05420
C2541       C  0.62775674  0.40082598  0.99835963    -0.20390
C2542       C  0.62977734  0.42746233  0.97806940    -0.06950
C2543       C  0.62522957  0.41714982  0.44074717     0.13910
C2544       C  0.62256801  0.38467907  0.43211004    -0.20440
C2545       C  0.62445634  0.36434581  0.95317072    -0.06960
C2546       C  0.61449906  0.37327791  0.98523935     0.13900
C2547       C  0.58463110  0.36089597  0.00278980    -0.23790
H2548       H  0.62309970  0.40470519  0.02405107     0.15190
H2549       H  0.62799590  0.37746390  0.40739164     0.15220
C2550       C  0.63234740  0.44129432  0.41561015    -0.23740
H2551       H  0.56794296  0.38086694  0.00785680     0.05430
H2552       H  0.59051213  0.35000610  0.02637109     0.08660
H2553       H  0.57138279  0.34476740  0.98751424     0.08660
H2554       H  0.65388569  0.45460959  0.42374681     0.08640
H2555       H  0.61077874  0.45686235  0.41374294     0.08640
H2556       H  0.63857758  0.43018636  0.39195324     0.05420
C2557       C  0.58267901  0.13732070  0.07650689    -0.20390
C2558       C  0.58644775  0.11315069  0.05272807    -0.06950
C2559       C  0.61687640  0.09854089  0.04852222     0.13910
C2560       C  0.64173371  0.10911390  0.06738234    -0.20440
C2561       C  0.64161801  0.14028517  0.07974129    -0.06960
C2562       C  0.61060379  0.15113215  0.09036415     0.13900
C2563       C  0.60784047  0.17664296  0.11583586    -0.23790
H2564       H  0.55876214  0.14641861  0.08274310     0.15190
H2565       H  0.66425753  0.09775037  0.06278491     0.15220
C2566       C  0.62607903  0.07572995  0.02133454    -0.23740
H2567       H  0.61986722  0.16816518  0.13788965     0.05430
H2568       H  0.58228632  0.18982765  0.62617179     0.08660
H2569       H  0.61967497  0.19947398  0.10758022     0.08660
H2570       H  0.63937798  0.08822148  0.51523305     0.08640
H2571       H  0.64969848  0.06458654  0.02493950     0.08640
H2572       H  0.62623559  0.08843102  0.99778526     0.05420
C2573       C  0.87336293  0.05146214  0.37367670    -0.20390
C2574       C  0.86845933  0.53671144  0.34728357    -0.06950
C2575       C  0.86767122  0.56070624  0.37118173     0.13910
C2576       C  0.88851044  0.55678500  0.39773832    -0.20440
C2577       C  0.90393036  0.52668702  0.40243808    -0.06960
C2578       C  0.90585225  0.05227872  0.38267496     0.13900
C2579       C  0.92342977  0.08354618  0.38324888    -0.23790
H2580       H  0.86157096  0.07346755  0.36640228     0.15190
H2581       H  0.89270284  0.57608079  0.41404997     0.15220
C2582       C  0.84851280  0.59078652  0.36656823    -0.23740
H2583       H  0.94185404  0.08453582  0.36316678     0.05430
H2584       H  0.89885057  0.45688190  0.40092162     0.08660
H2585       H  0.90679725  0.10376895  0.37934858     0.08660
H2586       H  0.83026730  0.59370819  0.38644794     0.08640
H2587       H  0.84474898  0.97669245  0.42102327     0.08640
H2588       H  0.86529970  0.61191452  0.36578617     0.05420
C2589       C  0.58346493  0.11671304  0.40162659    -0.20390
C2590       C  0.55044558  0.10569413  0.40728021    -0.06950
C2591       C  0.02934896  0.11897060  0.39106328     0.13910
C2592       C  0.04269044  0.11831679  0.36046560    -0.20440
C2593       C  0.56100844  0.16082416  0.37177610    -0.06960
C2594       C  0.58855153  0.14229825  0.37848266     0.13900
C2595       C  0.62141274  0.15214358  0.36534390    -0.23790
H2596       H  0.60315346  0.10744822  0.41506528     0.15190
H2597       H  0.03139770  0.10304001  0.34349847     0.15220
C2598       C  0.99503816  0.10634009  0.39764091    -0.23740
H2599       H  0.64022275  0.13776204  0.37681041     0.05430
H2600       H  0.62612262  0.17788700  0.37092421     0.08660
H2601       H  0.62279746  0.14865836  0.33877198     0.08660
H2602       H  0.97704042  0.12258197  0.38780514     0.08640
H2603       H  0.98808748  0.10430286  0.42348531     0.08640
H2604       H  0.99267145  0.08195576  0.38797533     0.05420
C2605       C  0.62168793  0.57871536  0.35068552    -0.20390
C2606       C  0.65926021  0.07038271  0.34352596    -0.06950
C2607       C  0.66673111  0.07785352  0.37538190     0.13910
C2608       C  0.64547011  0.06631692  0.40068626    -0.20440
C2609       C  0.61461829  0.05273539  0.39335152    -0.06960
C2610       C  0.59341122  0.57612213  0.37139690     0.13900
C2611       C  0.56584735  0.55915972  0.35497345    -0.23790
H2612       H  0.61890851  0.58440115  0.32539341     0.15190
H2613       H  0.65218313  0.06970324  0.42538040     0.15220
C2614       C  0.69463353  0.10060678  0.38075336    -0.23740
H2615       H  0.56271461  0.56985393  0.33063436     0.05430
H2616       H  0.55143878  0.06482747  0.36361130     0.08660
H2617       H  0.57175117  0.53348058  0.35153279     0.08660
H2618       H  0.71800802  0.08976319  0.37261859     0.08640
H2619       H  0.61473591  0.51177002  0.37285401     0.08640
H2620       H  0.69189956  0.12275263  0.36601471     0.05420
C2621       C  0.01619966  0.36631420  0.38563201    -0.20390
C2622       C  0.04215656  0.35537357  0.36557160    -0.06950
C2623       C  0.56710187  0.37759046  0.36176625     0.13910
C2624       C  0.56594789  0.40887884  0.37535623    -0.20440
C2625       C  0.04101065  0.41730847  0.39293934    -0.06960
C2626       C  0.01304524  0.39820708  0.39299981     0.13900
C2627       C  0.97925229  0.41139290  0.39929750    -0.23790
H2628       H  0.99535180  0.35222865  0.39217576     0.15190
H2629       H  0.58710704  0.42439474  0.37421129     0.15220
C2630       C  0.59732294  0.36611007  0.34410247    -0.23740
H2631       H  0.96076885  0.39204730  0.40414813     0.05430
H2632       H  0.97195561  0.42458177  0.37743024     0.08660
H2633       H  0.97836714  0.42825518  0.41969968     0.08660
H2634       H  0.59173128  0.35943118  0.31894854     0.08640
H2635       H  0.60674464  0.34463318  0.35668688     0.08640
H2636       H  0.61668845  0.38505013  0.34321530     0.05420
C2637       C  0.64053187  0.04826531  0.10280648    -0.20390
C2638       C  0.60736857  0.04268844  0.11328832    -0.06950
C2639       C  0.59893782  0.56218020  0.14127050     0.13910
C2640       C  0.62198043  0.57190565  0.16418514    -0.20440
C2641       C  0.65454136  0.06782371  0.15523095    -0.06960
C2642       C  0.66217645  0.06635565  0.12232702     0.13900
C2643       C  0.69401021  0.08198659  0.11067155    -0.23790
H2644       H  0.64880706  0.04090297  0.07900306     0.15190
H2645       H  0.61372151  0.58033625  0.18775406     0.15220
C2646       C  0.56556461  0.57501792  0.14386507    -0.23740
H2647       H  0.69131693  0.10852619  0.11078817     0.05430
H2648       H  0.70370072  0.57384856  0.09001142     0.08660
H2649       H  0.71452699  0.07761411  0.12647949     0.08660
H2650       H  0.55965455  0.58720033  0.12088242     0.08880
H2651       H  0.56284739  0.09110340  0.16291869     0.08640
H2652       H  0.54846895  0.55508217  0.14901721     0.05420
C2653       C  0.49337920  0.38107172  0.12784602    -0.20390
C2654       C  0.46027052  0.37126046  0.12439659    -0.06950
C2655       C  0.94383524  0.38153442  0.10216675     0.13910
C2656       C  0.96127756  0.40065973  0.07915669    -0.20440
C2657       C  0.49460219  0.40933714  0.07901775    -0.06960
C2658       C  0.51086626  0.39858081  0.10530726     0.13900
C2659       C  0.54785523  0.40124072  0.10728621    -0.23790
H2660       H  0.50882333  0.37332734  0.14564471     0.15190
H2661       H  0.94945678  0.40746854  0.05726116     0.15220
C2662       C  0.90944907  0.37081827  0.09688178    -0.23740
H2663       H  0.55686557  0.39230083  0.13062847     0.05430
H2664       H  0.55629550  0.42654727  0.10407034     0.08660
H2665       H  0.55949089  0.38669279  0.08772921     0.08660
H2666       H  0.89501219  0.37365748  0.11949645     0.08640
H2667       H  0.90775322  0.34486484  0.09154501     0.08640
H2668       H  0.89869822  0.38468097  0.07722111     0.05420
C2669       C  0.87387186  0.43975560  0.09444888    -0.20390
C2670       C  0.90649474  0.95364885  0.09473849    -0.06950
C2671       C  0.91382918  0.94247365  0.12656368     0.13910
C2672       C  0.89022231  0.92505396  0.14512446    -0.20440
C2673       C  0.85804755  0.92341911  0.13519110    -0.06960
C2674       C  0.85220154  0.42057271  0.11392056     0.13900
C2675       C  0.83200060  0.39360398  0.10113993    -0.23790
H2676       H  0.86881588  0.44345590  0.07005472     0.15190
H2677       H  0.89527189  0.91792875  0.16962701     0.15220
C2678       C  0.94556980  0.94805133  0.14242750    -0.23740
H2679       H  0.84173583  0.37006143  0.10872622     0.05430
H2680       H  0.82602597  0.90825980  0.06345851     0.08660
H2681       H  0.80698828  0.39434934  0.11195176     0.08660
H2682       H  0.96681817  0.94291820  0.12657059     0.08640
H2683       H  0.94723784  0.42384111  0.17132983     0.08640
H2684       H  0.94617851  0.97295764  0.15041989     0.05420
C2685       C  0.43988019  0.10058187  0.16261433    -0.20390
C2686       C  0.43230739  0.13279714  0.15939447    -0.06950
C2687       C  0.91259815  0.13906366  0.12448218     0.13910
C2688       C  0.91561927  0.11758228  0.09729228    -0.20440
C2689       C  0.43279472  0.08658592  0.10959139    -0.06960
C2690       C  0.45380325  0.08701070  0.13500427     0.13900
C2691       C  0.48865535  0.09565414  0.12427169    -0.23790
H2692       H  0.41740749  0.08796517  0.16907487     0.15190
H2693       H  0.90294458  0.12218315  0.07525106     0.15220
C2694       C  0.88733333  0.16489205  0.12568202    -0.23740
H2695       H  0.50537781  0.09252463  0.14324927     0.05430
H2696       H  0.48969571  0.12039566  0.11450505     0.08660
H2697       H  0.49929548  0.08037224  0.10498992     0.08660
H2698       H  0.89835049  0.18866395  0.13109029     0.08640
H2699       H  0.86898493  0.15904739  0.14522341     0.08640
H2700       H  0.87435418  0.16634544  0.10263337     0.05420
O2701       O  0.96079219  0.08100126  0.54945008    -0.86570
O2702       O  0.01511635  0.40447617  0.52695293    -0.86740
O2703       O  0.95335049  0.47323748  0.59445764    -0.88410
O2704       O  0.55492652  0.02195047  0.59974075    -0.87160
O2705       O  0.59724096  0.01874875  0.56275224    -0.86750
O2706       O  0.91486042  0.47820521  0.55570454    -0.88120
O2707       O  0.02267768  0.44888017  0.55344626    -0.86600
O2708       O  0.96750791  0.04055129  0.58521823    -0.86190
Zr2709     Zr  0.00921552  0.00240020  0.56644752     2.84310
O2710       O  0.54125592  0.47845388  0.53406185    -1.08160
O2711       O  0.97751480  0.03221971  0.53220471    -1.08890
C2712       C  0.95510522  0.06776365  0.57682590     1.06540
C2713       C  0.01088265  0.42028259  0.55247613     1.06480
C2714       C  0.92437379  0.46819098  0.58403633     1.09460
C2715       C  0.58554194  0.02643830  0.59098750     1.07240
H2716       H  0.96593555  0.45317750  0.53764986     0.32800
O2717       O  0.97972316  0.47063365  0.53011392    -1.29110
H2718       H  0.54411339  0.05912393  0.55790302     0.32470
O2719       O  0.53683401  0.04481043  0.54139366    -1.30790
O2720       O  0.54377448  0.42350106  0.94697194    -0.86570
O2721       O  0.51817046  0.09299254  0.96860572    -0.88060
O2722       O  0.93121152  0.44595120  0.98463084    -0.86640
O2723       O  0.60358601  0.47842566  0.49102775    -0.86690
O2724       O  0.58370489  0.08421758  0.50835002    -0.86400
O2725       O  0.92521648  0.05367626  0.98335527    -0.86210
O2726       O  0.95778655  0.49441620  0.92137366    -0.86580
O2727       O  0.55001046  0.04563542  0.91850148    -0.86040
O2728       O  0.91465922  0.50148436  0.95607004    -0.87110
O2729       O  0.58541837  0.05400249  0.95890312    -0.86260
O2730       O  0.97521471  0.41893881  0.47776273    -0.86660
O2731       O  0.95713831  0.09880299  0.98273065    -0.86380
O2732       O  0.52995043  0.10770695  0.04301797    -0.86030
O2733       O  0.57029967  0.43497952  0.48319281    -0.86440
O2734       O  0.53122291  0.46173438  0.91089708    -0.86740
O2735       O  0.49328478  0.06992182  0.92818965    -0.88080
Zr2736     Zr  0.51597762  0.44879661  0.49249539     2.83100
Zr2737     Zr  0.00197193  0.07369500  0.00642454     2.83500
Zr2738     Zr  0.94537563  0.49864543  0.00234469     2.84090
Zr2739     Zr  0.57913966  0.02449763  0.50640969     2.83360
Zr2740     Zr  0.51324787  0.51008884  0.93776257     2.84220
O2741       O  0.52904466  0.05002257  0.98141304    -1.08650
O2742       O  0.98298226  0.47134992  0.96748630    -1.08150
C2743       C  0.54201646  0.43405142  0.91825329     1.06510
C2744       C  0.50768370  0.09381851  0.94032325     1.09130
C2745       C  0.94594567  0.41946663  0.97878166     1.06680
C2746       C  0.59806188  0.44896849  0.48268166     1.07040
C2747       C  0.57104159  0.10444928  0.52856956     1.06630
C2748       C  0.93013671  0.08428114  0.97867322     1.06180
C2749       C  0.92746827  0.50087429  0.92768094     1.06600
C2750       C  0.57569337  0.05836544  0.92946713     1.06120
H2751       H  0.97283340  0.05501013  0.94803528     0.32790
O2752       O  0.98311580  0.04237824  0.96425089    -1.29750
H2753       H  0.56822090  0.48071810  0.95406546     0.32820
O2754       O  0.55150103  0.48789885  0.96909858    -1.31130
C2755       C  0.50666423  0.13244034  0.68678206     0.03050
C2756       C  0.47400664  0.14115359  0.69446285    -0.13100
C2757       C  0.45432651  0.15349275  0.66989824     0.00550
C2758       C  0.46964569  0.17576226  0.64916147    -0.11630
C2759       C  0.50254450  0.17203645  0.63934960     0.03040
C2760       C  0.52165323  0.14977069  0.65865657    -0.11050
H2761       H  0.46142289  0.12833417  0.71419488     0.08630
H2762       H  0.45423653  0.19023597  0.63446326     0.06160
H2763       H  0.54558036  0.14319392  0.64953089     0.06010
O2764       O  0.99251001  0.07761713  0.70131945    -0.75370
O2765       O  0.54143181  0.09025458  0.71545184    -0.54280
C2766       C  0.51511998  0.09804890  0.70066022     0.78360
O2767       O  0.90927054  0.99708334  0.81027359    -0.59970
O2768       O  0.90100214  0.43873262  0.78493983    -0.53000
C2769       C  0.89556422  0.46416917  0.80146252     0.70370
O2770       O  0.97815765  0.08536798  0.80854198    -0.74530
O2771       O  0.52742778  0.09047469  0.77566840    -0.55100
C2772       C  0.50194032  0.10371427  0.79069634     0.76370
O2773       O  0.91237058  0.00993134  0.68930275    -0.59680
O2774       O  0.90457126  0.46255675  0.71337185    -0.52800
C2775       C  0.89543932  0.48578329  0.69357911     0.72960
Zr2776     Zr  0.96754307  0.02293881  0.70619310     2.54710
O2777       O  0.91846081  0.05470859  0.71539967    -0.80240
O2778       O  0.97416587  0.00893417  0.64945665    -0.93660
Zr2779     Zr  0.96233185  0.02724153  0.79947833     2.64680
O2780       O  0.91853486  0.06625594  0.79907358    -0.98610
O2781       O  0.97851335  0.03676859  0.85376811    -0.80680
O2782       O  0.98854193  0.04744085  0.75207208    -0.84030
O2783       O  0.94268007  0.00136005  0.75326676    -2.18740
O2784       O  0.51585197  0.39470712  0.69722294    -0.67420
O2785       O  0.96562584  0.39188393  0.72025066    -0.51990
C2786       C  0.98963328  0.37833355  0.70384084     0.71350
O2787       O  0.58397753  0.47433208  0.81305617    -0.60330
O2788       O  0.59394174  0.02320136  0.78343511    -0.52310
C2789       C  0.60501957  0.99913836  0.80101580     0.73150
O2790       O  0.50063382  0.40554896  0.81537404    -0.71730
O2791       O  0.95428167  0.39514629  0.78609224    -0.50400
C2792       C  0.97618316  0.38750685  0.80656518     0.74530
O2793       O  0.58871258  0.47336711  0.69251037    -0.67060
O2794       O  0.59349358  0.02356006  0.71271499    -0.54250
C2795       C  0.60601328  0.99931598  0.69695583     0.72910
Zr2796     Zr  0.53407321  0.45269723  0.70654611     2.77540
O2797       O  0.57928576  0.41537653  0.70932790    -0.97800
O2798       O  0.53160368  0.45933300  0.64842297    -0.78630
Zr2799     Zr  0.52720996  0.45814629  0.80013454     2.70070
O2800       O  0.56774072  0.41753820  0.80942457    -0.79870
O2801       O  0.51294740  0.47723504  0.85251318    -0.98960
Zr2802     Zr  0.54612936  0.03807141  0.74766916     2.21500
Zr2803     Zr  0.95060353  0.44299800  0.74948270     2.11130
O2804       O  0.50749776  0.43270679  0.75395403    -2.47640
O2805       O  0.55255540  0.47998698  0.75308539    -0.79670
O2806       O  0.97855471  0.46493790  0.70264181    -0.71860
O2807       O  0.51999898  0.01717034  0.79543054    -2.32820
O2808       O  0.52539501  0.00959460  0.70142168    -2.29030
O2809       O  0.97243861  0.47071869  0.79495788    -0.73620
H2810       H  0.91981688  0.00621153  0.75270362     0.78380
H2811       H  0.52872455  0.02869195  0.81326640     0.79460
H2812       H  0.51222262  0.41008587  0.75582672     0.81690
H2813       H  0.53575475  0.01768399  0.68181660     0.79300
H2814       H  0.99657189  0.05274646  0.85360704     0.42330
H2815       H  0.50362387  0.45748518  0.86264549     0.41300
H2816       H  0.57171785  0.40760300  0.78797824     0.40980
H2817       H  0.57224867  0.39900676  0.72568278     0.38910
H2818       H  0.50819598  0.45950496  0.64387558     0.42050
H2819       H  0.99620347  0.01340648  0.64010419     0.36830
H2820       H  0.92494825  0.07153987  0.73086634     0.42950
H2821       H  0.90402514  0.05883177  0.78199614     0.39360
H2822       H  0.57962224  0.40377793  0.68847372     0.44280
H2823       H  0.95789286  0.02145865  0.63802074     0.43000
H2824       H  0.90575599  0.06252571  0.81936397     0.43140
H2825       H  0.53522635  0.48011671  0.86021458     0.43500
C2826       C  0.86055449  0.98262872  0.68055110     0.03050
C2827       C  0.84322799  0.95392319  0.68784120    -0.13100
C2828       C  0.83132283  0.93828083  0.66100781     0.00550
C2829       C  0.80944140  0.95784130  0.64489004    -0.11630
C2830       C  0.82005648  0.98925554  0.63527828     0.03040
C2831       C  0.84849502  0.00118634  0.65272672    -0.11050
H2832       H  0.85055380  0.93876166  0.70762310     0.08630
H2833       H  0.79058595  0.94579312  0.63168427     0.06160
H2834       H  0.86188753  0.02219338  0.64379070     0.06010
C2835       C  0.48102549  0.34524982  0.68740273     0.03050
C2836       C  0.44865936  0.34696177  0.67809637    -0.13100
C2837       C  0.44440232  0.34396259  0.64562024     0.00550
C2838       C  0.45379692  0.31428803  0.63454098    -0.11630
C2839       C  0.48625688  0.30501362  0.63894723     0.03040
C2840       C  0.50118910  0.32193773  0.66700862    -0.11050
H2841       H  0.43098141  0.36215954  0.69033167     0.08630
H2842       H  0.43979304  0.30518672  0.61511907     0.06160
H2843       H  0.52718517  0.32059359  0.67005610     0.06010
C2844       C  0.64126507  0.00333800  0.68579243     0.03050
C2845       C  0.65815306  0.02911969  0.70018468    -0.13100
C2846       C  0.67760421  0.04748014  0.67897559     0.00550
C2847       C  0.70102542  0.02747418  0.66385491    -0.11630
C2848       C  0.68834703  0.00177235  0.64563290     0.03040
C2849       C  0.65682216  0.98925343  0.65725014    -0.11050
H2850       H  0.64780616  0.04124459  0.72118265     0.08630
H2851       H  0.72491894  0.03735416  0.65774639     0.06160
H2852       H  0.64364278  0.97197133  0.64302236     0.06010
C2853       C  0.98050314  0.35241945  0.81737418     0.03050
C2854       C  0.01291367  0.34241416  0.81151606    -0.13100
C2855       C  0.02825656  0.32803603  0.83720711     0.00550
C2856       C  0.01027484  0.30240023  0.85090181    -0.11630
C2857       C  0.97726092  0.30799074  0.85967506     0.03040
C2858       C  0.96141590  0.33378838  0.84165207    -0.11050
H2859       H  0.02846317  0.35643198  0.79486149     0.08630
H2860       H  0.02376300  0.28544410  0.86509577     0.06160
H2861       H  0.93823644  0.34290088  0.85053000     0.06010
C2862       C  0.63991634  0.00191884  0.81487457     0.03050
C2863       C  0.65495211  0.03200771  0.80977864    -0.13100
C2864       C  0.67135320  0.04477648  0.83561331     0.00550
C2865       C  0.69453955  0.02417358  0.84825589    -0.11630
C2866       C  0.68504077  0.99201667  0.85577907     0.03040
C2867       C  0.65613356  0.98061551  0.83825297    -0.11050
H2868       H  0.64502655  0.04882768  0.79278266     0.08630
H2869       H  0.71331029  0.03548133  0.86220061     0.06160
H2870       H  0.64433263  0.95816802  0.84535468     0.06010
C2871       C  0.50610648  0.13947249  0.80482175     0.03050
C2872       C  0.53935789  0.14904190  0.80514762    -0.13100
C2873       C  0.55078949  0.16068740  0.83438209     0.00550
C2874       C  0.53280743  0.18667208  0.84613327    -0.11630
C2875       C  0.49933418  0.18066887  0.85277055     0.03040
C2876       C  0.48495409  0.15722194  0.82934394    -0.11050
H2877       H  0.55722356  0.13686561  0.78995779     0.08630
H2878       H  0.54561730  0.20339631  0.86139589     0.06160
H2879       H  0.45963680  0.15027006  0.83254731     0.06010
C2880       C  0.86258127  0.47287046  0.81712196     0.03050
C2881       C  0.85270060  0.50343842  0.80645161    -0.13100
C2882       C  0.84284716  0.52460744  0.83062076     0.00550
C2883       C  0.81680037  0.51152567  0.84910547    -0.11630
C2884       C  0.82146319  0.48098521  0.86331100     0.03040
C2885       C  0.84677290  0.46132916  0.84749624    -0.11050
H2886       H  0.86409449  0.51378676  0.78477116     0.08630
H2887       H  0.79974732  0.52803484  0.86041163     0.06160
H2888       H  0.85530438  0.43982794  0.85923228     0.06010
O2889       O  0.68806492  0.47308149  0.59108043    -0.75370
O2890       O  0.72091202  0.02105306  0.59898209    -0.54280
C2891       C  0.70223569  0.99796971  0.61110010     0.78360
O2892       O  0.80130854  0.40730485  0.49725370    -0.59970
O2893       O  0.77995068  0.39598298  0.95277141    -0.53000
C2894       C  0.79923723  0.39001604  0.97619326     0.70370
O2895       O  0.81077508  0.47360809  0.58149860    -0.74530
O2896       O  0.79024468  0.02438249  0.59465585    -0.55100
C2897       C  0.80722625  0.99842271  0.60138293     0.76370
O2898       O  0.68820718  0.39903942  0.51850018    -0.59680
O2899       O  0.71300661  0.39630746  0.97012565    -0.52800
C2900       C  0.69688224  0.38318049  0.99497757     0.72960
Zr2901     Zr  0.69816629  0.45647799  0.53387127     2.54710
O2902       O  0.68826827  0.41238806  0.57223877    -0.80240
O2903       O  0.64054513  0.46698357  0.53735841    -0.93660
Zr2904     Zr  0.79239175  0.45722597  0.52882252     2.64680
O2905       O  0.77755752  0.41643390  0.56888527    -0.98610
O2906       O  0.84751622  0.47812117  0.53731162    -0.80680
O2907       O  0.74620780  0.47932383  0.55460040    -0.84030
O2908       O  0.74495549  0.43553335  0.50698650    -2.18740
O2909       O  0.69277308  0.00560821  0.91140233    -0.67420
O2910       O  0.70911144  0.46158486  0.90459939    -0.51990
C2911       C  0.69054719  0.48639563  0.89825055     0.71350
O2912       O  0.78253353  0.07809212  0.98069274    -0.60330
O2913       O  0.78676236  0.08745664  0.53496653    -0.52310
C2914       C  0.79165850  0.09778825  0.50544348     0.73150
O2915       O  0.79583871  0.98943934  0.91039881    -0.71730
O2916       O  0.78566342  0.45417512  0.90538780    -0.50400
C2917       C  0.80537891  0.47801927  0.89732471     0.74530
O2918       O  0.69026815  0.08281043  0.98485242    -0.67060
O2919       O  0.71870757  0.08961634  0.53380992    -0.54250
C2920       C  0.69942722  0.10134339  0.51172514     0.72910
Zr2921     Zr  0.70027519  0.02573652  0.96719966     2.77540
O2922       O  0.71440621  0.07058558  0.93059843    -0.97800
O2923       O  0.64228775  0.02464468  0.97120745    -0.78630
Zr2924     Zr  0.79287541  0.02138442  0.96118312     2.70070
O2925       O  0.80001016  0.05399513  0.91220593    -0.79870
O2926       O  0.85186258  0.01900275  0.96352880    -0.98960
Zr2927     Zr  0.75147671  0.03871185  0.54807810     2.21500
Zr2928     Zr  0.74512711  0.44615821  0.95221943     2.11130
O2929       O  0.74467523  0.99923810  0.94227135    -2.47640
O2930       O  0.74844642  0.04439817  0.98913150    -0.79670
O2931       O  0.69810894  0.46861322  0.98143324    -0.71860
O2932       O  0.79577572  0.01494911  0.51832214    -2.32820
O2933       O  0.70189197  0.01516912  0.52758123    -2.29030
O2934       O  0.79266133  0.47199081  0.97390339    -0.73620
H2935       H  0.74533265  0.41283745  0.51162490     0.78380
H2936       H  0.81493930  0.02482789  0.52673558     0.79460
H2937       H  0.74539125  0.00556169  0.91992324     0.81690
H2938       H  0.68312585  0.02500326  0.53774003     0.79300
H2939       H  0.85537213  0.48867494  0.51703176     0.42330
H2940       H  0.85765230  0.99658182  0.96878619     0.41300
H2941       H  0.78236954  0.07000908  0.91345763     0.40980
H2942       H  0.72469718  0.06080678  0.91115306     0.38910
H2943       H  0.63807695  0.00726365  0.95576378     0.42050
H2944       H  0.63923326  0.49000173  0.54303183     0.36830
H2945       H  0.70757643  0.41187046  0.58584403     0.42950
H2946       H  0.76248265  0.42710497  0.58446582     0.39360
H2947       H  0.69398781  0.07981511  0.92303914     0.44280
H2948       H  0.63257751  0.45558325  0.55721031     0.43000
H2949       H  0.76417713  0.39969095  0.55860298     0.43140
H2950       H  0.86070963  0.02343623  0.94145339     0.43500
O2951       O  0.97694616  0.27153038  0.59120093    -0.75370
O2952       O  0.52861232  0.27962703  0.59858352    -0.54280
C2953       C  0.49864186  0.28347043  0.60932208     0.78360
O2954       O  0.90675389  0.17660671  0.51901986    -0.59970
O2955       O  0.89843568  0.20455989  0.97038582    -0.53000
C2956       C  0.88878568  0.18341810  0.99239297     0.70370
O2957       O  0.98718548  0.17892900  0.58705820    -0.74530
O2958       O  0.53122344  0.20718500  0.59728102    -0.55100
C2959       C  0.50888400  0.18533814  0.60451067     0.76370
O2960       O  0.91362415  0.29303021  0.49958476    -0.59680
O2961       O  0.89619930  0.27627375  0.95418044    -0.52800
C2962       C  0.88956922  0.29337143  0.97944742     0.72960
Zr2963     Zr  0.96165938  0.28466381  0.53450376     2.54710
O2964       O  0.91136097  0.28923581  0.56658261    -0.80240
O2965       O  0.97477076  0.33864461  0.55296269    -0.93660
Zr2966     Zr  0.96266768  0.19357113  0.53497208     2.64680
O2967       O  0.92234432  0.20444422  0.57752371    -0.98610
O2968       O  0.96158765  0.13732698  0.53936113    -0.80680
O2969       O  0.98539479  0.23960832  0.55805201    -0.84030
O2970       O  0.93973919  0.23841054  0.50987774    -2.18740
O2971       O  0.49875221  0.29795475  0.91188304    -0.67420
O2972       O  0.95004950  0.27557098  0.90259776    -0.51990
C2973       C  0.97083633  0.29834917  0.89529240     0.71350
O2974       O  0.58710613  0.18138723  0.98457188    -0.60330
O2975       O  0.58944729  0.20933671  0.53042796    -0.52310
C2976       C  0.60226108  0.19127738  0.50742138     0.73150
O2977       O  0.51286764  0.18594435  0.90991668    -0.71730
O2978       O  0.95419565  0.20670726  0.89985147    -0.50400
C2979       C  0.98306387  0.20296257  0.88665631     0.74530
O2980       O  0.57945042  0.29255437  0.99055444    -0.67060
O2981       O  0.59525969  0.27555055  0.54096032    -0.54250
C2982       C  0.60061234  0.29094323  0.51399755     0.72910
Zr2983     Zr  0.52656556  0.28980354  0.96400179     2.77540
O2984       O  0.56884443  0.28764494  0.92130043    -0.97800
O2985       O  0.52793430  0.34787123  0.95488905    -0.78630
Zr2986     Zr  0.53219303  0.19849424  0.96623478     2.70070
O2987       O  0.57947957  0.20468598  0.93027906    -0.79870
O2988       O  0.51788941  0.14971910  0.99212018    -0.98960
Zr2989     Zr  0.54222015  0.24444451  0.54868571     2.21500
Zr2990     Zr  0.94495900  0.24061644  0.95130590     2.11130
O2991       O  0.50595759  0.24202710  0.94239491    -2.47640
O2992       O  0.55098475  0.24613088  0.98991814    -0.79670
O2993       O  0.96610511  0.28652302  0.97961642    -0.71860
O2994       O  0.52048480  0.19872866  0.52081665    -2.32820
O2995       O  0.51539021  0.29151604  0.52573226    -2.29030
O2996       O  0.97404602  0.19492901  0.97142013    -0.73620
H2997       H  0.91674118  0.23805600  0.51537710     0.78380
H2998       H  0.53103657  0.17968072  0.52847768     0.79460
H2999       H  0.51170388  0.24234147  0.91965473     0.81690
H3000       H  0.52463494  0.31041050  0.53550102     0.79300
H3001       H  0.98218721  0.13346089  0.55037256     0.42330
H3002       H  0.50025499  0.14188631  0.97861532     0.41300
H3003       H  0.58977166  0.22533314  0.93651694     0.40980
H3004       H  0.56205832  0.27018297  0.90672300     0.38910
H3005       H  0.54627108  0.35175377  0.93917080     0.42050
H3006       H  0.99401242  0.34693203  0.54049652     0.36830
H3007       H  0.91034303  0.27036927  0.58122551     0.42950
H3008       H  0.93272116  0.22044598  0.59162306     0.39360
H3009       H  0.56660032  0.30762227  0.90847469     0.44280
H3010       H  0.98368036  0.33464416  0.57438693     0.43000
H3011       H  0.90451939  0.21613512  0.56730481     0.43140
H3012       H  0.53837672  0.13834658  0.98763129     0.43500
C3013       C  0.68219802  0.13480916  0.51800010     0.03050
C3014       C  0.68838866  0.14924405  0.54813764    -0.13100
C3015       C  0.66458241  0.16939827  0.56238913     0.00550
C3016       C  0.65135612  0.19097160  0.54094676    -0.11630
C3017       C  0.63694252  0.17734208  0.51388960     0.03040
C3018       C  0.65405598  0.14866987  0.50106946    -0.11050
H3019       H  0.70504471  0.13780223  0.56415401     0.08630
H3020       H  0.64174884  0.21292233  0.55131892     0.06160
H3021       H  0.64444958  0.13624483  0.48048198     0.06010
C3022       C  0.67781074  0.34857758  0.48915722     0.03050
C3023       C  0.67217939  0.34175024  0.45652961    -0.13100
C3024       C  0.64605472  0.33535763  0.94837291     0.00550
C3025       C  0.63282136  0.30449589  0.46639696    -0.11630
C3026       C  0.63353786  0.30512503  0.50026547     0.03040
C3027       C  0.65714156  0.32917431  0.51270585    -0.11050
H3028       H  0.69242535  0.35520385  0.93856031     0.08630
H3029       H  0.61810227  0.28703832  0.45396331     0.06160
H3030       H  0.65616020  0.33560147  0.53800591     0.06010
C3031       C  0.85459882  0.17129678  0.49074231     0.03050
C3032       C  0.84092225  0.17925446  0.46098101    -0.13100
C3033       C  0.82732681  0.15340501  0.44489660     0.00550
C3034       C  0.80115360  0.14057175  0.46369063    -0.11630
C3035       C  0.80775377  0.13068282  0.49583567     0.03040
C3036       C  0.83650105  0.14637517  0.50954832    -0.11050
H3037       H  0.85103192  0.19866260  0.44609199     0.08630
H3038       H  0.78184236  0.12892625  0.45072803     0.06160
H3039       H  0.84579067  0.13794871  0.53215551     0.06010
C3040       C  0.85726975  0.31181450  0.98596777     0.03050
C3041       C  0.85164238  0.31476316  0.01961029    -0.13100
C3042       C  0.84718016  0.34600634  0.02991162     0.00550
C3043       C  0.81721242  0.35455292  0.01843376    -0.11630
C3044       C  0.81513992  0.35704217  0.98438534     0.03040
C3045       C  0.83817312  0.33513066  0.96670218    -0.11050
H3046       H  0.86152163  0.29788484  0.03653766     0.08630
H3047       H  0.80084959  0.36718141  0.03476331     0.06160
H3048       H  0.84337030  0.33836570  0.94109534     0.06010
C3049       C  0.89270470  0.39666476  0.97055583    -0.20390
C3050       C  0.92509305  0.39095157  0.97636934    -0.06950
C3051       C  0.93311312  0.36763402  0.48980837     0.13910
C3052       C  0.91089680  0.35679872  0.51415855    -0.20440
C3053       C  0.87589853  0.36813298  0.01981642    -0.06960
C3054       C  0.87170490  0.39357337  0.99753238     0.13900
C3055       C  0.86349566  0.42493300  0.01133787    -0.23790
H3056       H  0.88772397  0.41551849  0.95315393     0.15190
H3057       H  0.91775500  0.33843908  0.53088667     0.15220
C3058       C  0.96451157  0.35129236  0.48337970    -0.23740
H3059       H  0.88584667  0.43541029  0.02135783     0.05430
H3060       H  0.84417427  0.41828703  0.52905371     0.08660
H3061       H  0.85463156  0.44129254  0.99223350     0.08660
H3062       H  0.98564748  0.36649476  0.48889543     0.08640
H3063       H  0.96823109  0.34556931  0.97025005     0.08640
H3064       H  0.96562155  0.33064411  0.49925673     0.05420
C3065       C  0.90900765  0.12729431  0.94237340    -0.20390
C3066       C  0.90351199  0.10208140  0.96502397    -0.06950
C3067       C  0.87334974  0.09000101  0.47099663     0.13910
C3068       C  0.85093575  0.09856362  0.44811947    -0.20440
C3069       C  0.85095589  0.12794741  0.93266378    -0.06960
C3070       C  0.88282774  0.13962680  0.92508380     0.13900
C3071       C  0.88851568  0.16598359  0.90044727    -0.23790
H3072       H  0.93320560  0.13713442  0.93809071     0.15190
H3073       H  0.82806189  0.08690029  0.44966912     0.15220
C3074       C  0.86261242  0.07206720  0.50183619    -0.23740
H3075       H  0.90660289  0.15821310  0.88163375     0.05430
H3076       H  0.90270560  0.18849065  0.41363872     0.08660
H3077       H  0.86560290  0.17203121  0.88839934     0.08660
H3078       H  0.86515364  0.08779126  0.52312942     0.08640
H3079       H  0.87589511  0.04897085  0.00590501     0.08640
H3080       H  0.83763086  0.06378722  0.50021349     0.05420
C3081       C  0.62434317  0.40275870  0.49654001    -0.20390
C3082       C  0.62377922  0.42679085  0.47342540    -0.06950
C3083       C  0.63208696  0.42182920  0.94432736     0.13910
C3084       C  0.63183266  0.39018425  0.93234647    -0.20440
C3085       C  0.61768232  0.36110373  0.45594518    -0.06960
C3086       C  0.61141761  0.37306293  0.48815631     0.13900
C3087       C  0.58483730  0.36160156  0.51141345    -0.23790
H3088       H  0.62197948  0.40970593  0.52177823     0.15190
H3089       H  0.63854302  0.38556844  0.90725504     0.15220
C3090       C  0.63040030  0.44849330  0.92073924    -0.23740
H3091       H  0.57059365  0.38231610  0.52050935     0.05430
H3092       H  0.59499903  0.35024615  0.53308697     0.08660
H3093       H  0.56705456  0.34646475  0.49980257     0.08660
H3094       H  0.63657238  0.47159814  0.93183191     0.08640
H3095       H  0.60559255  0.45057907  0.91158180     0.08640
H3096       H  0.64781980  0.44269034  0.90087995     0.05420
C3097       C  0.58313174  0.14854586  0.57019484    -0.20390
C3098       C  0.59214480  0.12058243  0.55238745    -0.06950
C3099       C  0.62181890  0.10641458  0.56026389     0.13910
C3100       C  0.63925122  0.12015039  0.58509149    -0.20440
C3101       C  0.63979461  0.15348096  0.58561159    -0.06960
C3102       C  0.60754847  0.16531940  0.58768864     0.13900
C3103       C  0.60059948  0.19530978  0.60653901    -0.23790
H3104       H  0.55889522  0.15790674  0.56901268     0.15190
H3105       H  0.63086821  0.11093684  0.60827884     0.15220
C3106       C  0.63708255  0.08042638  0.54056885    -0.23740
H3107       H  0.62298924  0.20448891  0.61788494     0.05430
H3108       H  0.58213596  0.18154339  0.12259881     0.08660
H3109       H  0.59168828  0.21456406  0.59062340     0.08660
H3110       H  0.61022512  0.05500366  0.01927766     0.08640
H3111       H  0.62237822  0.05898254  0.53988905     0.08640
H3112       H  0.66079106  0.07391209  0.54949686     0.05420
C3113       C  0.87305203  0.04936002  0.87613749    -0.20390
C3114       C  0.87029011  0.53723819  0.85088518    -0.06950
C3115       C  0.86379539  0.54631327  0.88226640     0.13910
C3116       C  0.88106615  0.53232945  0.90744081    -0.20440
C3117       C  0.90699567  0.51117225  0.90091718    -0.06960
C3118       C  0.90591725  0.04903232  0.88384010     0.13900
C3119       C  0.92451396  0.07989875  0.88493241    -0.23790
H3120       H  0.86170497  0.07185007  0.86964937     0.15190
H3121       H  0.87829481  0.54242021  0.93082372     0.15220
C3122       C  0.84716972  0.57733154  0.88606112    -0.23740
H3123       H  0.94222334  0.08116596  0.86433270     0.05430
H3124       H  0.94711727  0.46647809  0.86364284     0.08660
H3125       H  0.90841980  0.10073500  0.88204499     0.08660
H3126       H  0.84283917  0.58088768  0.91142475     0.08640
H3127       H  0.84423362  0.97389313  0.92374005     0.08640
H3128       H  0.86326966  0.59704239  0.87644460     0.05420
C3129       C  0.55140271  0.13105593  0.91895804    -0.20390
C3130       C  0.51899714  0.11838489  0.91795882    -0.06950
C3131       C  0.02572562  0.13155731  0.90173422     0.13910
C3132       C  0.03381387  0.16161223  0.89456942    -0.20440
C3133       C  0.55229857  0.13546893  0.86054218    -0.06960
C3134       C  0.56728855  0.14206644  0.88989950     0.13900
C3135       C  0.60139604  0.15562320  0.88922626    -0.23790
H3136       H  0.56477904  0.13047085  0.94096467     0.15190
H3137       H  0.03820523  0.17315643  0.91739178     0.15220
C3138       C  0.99054908  0.12051739  0.90206108    -0.23740
H3139       H  0.61143689  0.15611392  0.91379563     0.05430
H3140       H  0.60186535  0.18026172  0.87867053     0.08660
H3141       H  0.61761195  0.14044894  0.87392379     0.08660
H3142       H  0.98249805  0.10911145  0.92517089     0.08640
H3143       H  0.98818338  0.10279766  0.88247174     0.08640
H3144       H  0.97373007  0.14064676  0.89854264     0.05420
C3145       C  0.62520571  0.57240099  0.84066138    -0.20390
C3146       C  0.64946708  0.06167534  0.86004990    -0.06950
C3147       C  0.64576112  0.04920890  0.89194884     0.13910
C3148       C  0.63086139  0.07116906  0.91278719    -0.20440
C3149       C  0.59823039  0.07445500  0.90509000    -0.06960
C3150       C  0.60320402  0.55812442  0.86337795     0.13900
C3151       C  0.57002698  0.55035166  0.85160427    -0.23790
H3152       H  0.61793840  0.57623917  0.81603049     0.15190
H3153       H  0.63792408  0.07155934  0.93763203     0.15220
C3154       C  0.62699233  0.01667210  0.89365020    -0.23740
H3155       H  0.56769140  0.55789349  0.82616905     0.05430
H3156       H  0.54227665  0.05760510  0.86665535     0.08660
H3157       H  0.56575211  0.52415573  0.85340817     0.08660
H3158       H  0.64142961  0.99684847  0.89861534     0.08640
H3159       H  0.68792365  0.61295638  0.90975977     0.08640
H3160       H  0.60838125  0.01385140  0.91313344     0.05420
C3161       C  0.01277195  0.36724460  0.87966707    -0.20390
C3162       C  0.03804657  0.35325010  0.86103032    -0.06950
C3163       C  0.56945487  0.36828581  0.86063413     0.13910
C3164       C  0.57114225  0.39730119  0.87849468    -0.20440
C3165       C  0.04508153  0.41074899  0.89519975    -0.06960
C3166       C  0.01447943  0.39695881  0.89234919     0.13900
C3167       C  0.98232370  0.41140799  0.90412771    -0.23790
H3168       H  0.98943651  0.35727420  0.88373593     0.15190
H3169       H  0.59390015  0.41034120  0.87931327     0.15220
C3170       C  0.59865676  0.35650470  0.84153554    -0.23740
H3171       H  0.97018890  0.39478369  0.92190484     0.05430
H3172       H  0.96611968  0.41373953  0.88333215     0.08660
H3173       H  0.98424027  0.43544840  0.91512596     0.08660
H3174       H  0.59284321  0.35435969  0.81563749     0.08640
H3175       H  0.60565596  0.33250521  0.85082305     0.08640
H3176       H  0.61978924  0.37325754  0.84346912     0.05420
C3177       C  0.64321197  0.04486049  0.60448534    -0.20390
C3178       C  0.60963638  0.04232852  0.61356438    -0.06950
C3179       C  0.59776287  0.55970926  0.64093934     0.13910
C3180       C  0.62119224  0.57064818  0.66287404    -0.20440
C3181       C  0.65711239  0.06686943  0.65581532    -0.06960
C3182       C  0.66482623  0.06360635  0.62306340     0.13900
C3183       C  0.69513389  0.08044492  0.60971706    -0.23790
H3184       H  0.65213333  0.03390147  0.58253866     0.15190
H3185       H  0.61338075  0.57922821  0.68652676     0.15220
C3186       C  0.56430403  0.57236552  0.64373473    -0.23740
H3187       H  0.69267416  0.10684703  0.61221928     0.05430
H3188       H  0.70177212  0.57289066  0.58690619     0.08660
H3189       H  0.71722461  0.07469679  0.62284077     0.08660
H3190       H  0.55877957  0.58503640  0.62091442     0.08880
H3191       H  0.56624022  0.09410811  0.66145932     0.08640
H3192       H  0.54641273  0.55282870  0.64824910     0.05420
C3193       C  0.49218202  0.38048916  0.62738879    -0.20390
C3194       C  0.45905171  0.37033203  0.62466818    -0.06950
C3195       C  0.94195442  0.37994538  0.59786678     0.13910
C3196       C  0.95838905  0.39937878  0.57464990    -0.20440
C3197       C  0.49270014  0.40654054  0.57726646    -0.06960
C3198       C  0.50927245  0.39726680  0.60394145     0.13900
C3199       C  0.54610880  0.40130829  0.60587404    -0.23790
H3200       H  0.50769002  0.37399156  0.64568435     0.15190
H3201       H  0.94626670  0.40563031  0.55272147     0.15220
C3202       C  0.90810319  0.36795674  0.59274710    -0.23740
H3203       H  0.55544293  0.39299078  0.62932831     0.05430
H3204       H  0.55347328  0.42692184  0.60253087     0.08660
H3205       H  0.55833158  0.38702401  0.58646412     0.08660
H3206       H  0.89343195  0.37035639  0.61538595     0.08640
H3207       H  0.90838313  0.34221870  0.58689149     0.08640
H3208       H  0.89662412  0.38127904  0.57315343     0.05420
C3209       C  0.87200660  0.43548882  0.59410346    -0.20390
C3210       C  0.90676757  0.95284796  0.59760308    -0.06950
C3211       C  0.91424041  0.94114325  0.62938629     0.13910
C3212       C  0.89017922  0.92549965  0.64895949    -0.20440
C3213       C  0.85805131  0.92394321  0.63935487    -0.06960
C3214       C  0.85019572  0.41710577  0.61410384     0.13900
C3215       C  0.82912824  0.39068192  0.60168638    -0.23790
H3216       H  0.86841888  0.43664423  0.56914533     0.15190
H3217       H  0.89530875  0.91900491  0.67363068     0.15220
C3218       C  0.94608387  0.94437838  0.64523045    -0.23740
H3219       H  0.83814463  0.36698838  0.60977709     0.05430
H3220       H  0.83163911  0.89899710  0.56750655     0.08660
H3221       H  0.80409077  0.39269625  0.61219956     0.08660
H3222       H  0.96712559  0.94570846  0.62846722     0.08640
H3223       H  0.94414379  0.42762300  0.67385441     0.08640
H3224       H  0.94398376  0.96486003  0.66133314     0.05420
C3225       C  0.43963424  0.09851053  0.65625233    -0.20390
C3226       C  0.43050477  0.13036814  0.65412174    -0.06950
C3227       C  0.91500255  0.13578251  0.62622523     0.13910
C3228       C  0.91916856  0.11385383  0.59967484    -0.20440
C3229       C  0.44071884  0.09083817  0.59976993    -0.06960
C3230       C  0.45498088  0.08571144  0.62908608     0.13900
C3231       C  0.49123145  0.07945869  0.62914541    -0.23790
H3232       H  0.44598920  0.09028417  0.67903386     0.15190
H3233       H  0.90740836  0.11807996  0.57704196     0.15220
C3234       C  0.88984067  0.16164522  0.62550817    -0.23740
H3235       H  0.49707794  0.06185507  0.64721438     0.05430
H3236       H  0.50385374  0.10198010  0.63298305     0.08660
H3237       H  0.50343102  0.07158177  0.60642952     0.08660
H3238       H  0.90024424  0.18533168  0.63211469     0.08640
H3239       H  0.86997208  0.15564104  0.64347257     0.08640
H3240       H  0.87896329  0.16337266  0.60136943     0.05420
O3241       O  0.95835983  0.58482485  0.04793763    -0.86570
O3242       O  0.01765577  0.91237393  0.02930252    -0.86740
O3243       O  0.95763397  0.97975193  0.08527179    -0.88410
O3244       O  0.55452865  0.52136637  0.09989981    -0.87160
O3245       O  0.59621287  0.52449806  0.06186795    -0.86750
O3246       O  0.92201568  0.98130344  0.04352283    -0.88120
O3247       O  0.02818201  0.95080197  0.06472670    -0.86600
O3248       O  0.96481597  0.54443876  0.08402314    -0.86190
Zr3249     Zr  0.00578709  0.50263798  0.07005903     2.84310
O3250       O  0.54057143  0.97980635  0.03387725    -1.08160
O3251       O  0.97304063  0.53090747  0.03594202    -1.08890
C3252       C  0.95300052  0.57209730  0.07560555     1.06540
C3253       C  0.01372067  0.92461027  0.05689187     1.06480
C3254       C  0.92990951  0.97322102  0.07309001     1.09460
C3255       C  0.58483659  0.52848362  0.09088599     1.07240
H3256       H  0.97430855  0.95680650  0.03020700     0.32800
O3257       O  0.98779261  0.97432789  0.02222247    -1.29110
H3258       H  0.54092617  0.55873209  0.05914189     0.32470
O3259       O  0.53329454  0.54456118  0.04266475    -1.30790
O3260       O  0.55140331  0.92200500  0.44817752    -0.86570
O3261       O  0.52068973  0.59138911  0.46835571    -0.88060
O3262       O  0.93411700  0.95076001  0.47564533    -0.86640
O3263       O  0.60280812  0.97933419  0.99114749    -0.86690
O3264       O  0.57300165  0.58305963  0.00433236    -0.86400
O3265       O  0.91791366  0.55424702  0.49757779    -0.86210
O3266       O  0.97623044  0.02173813  0.40580036    -0.86580
O3267       O  0.55175546  0.54285322  0.41861862    -0.86040
O3268       O  0.93237359  0.01198554  0.44061479    -0.87110
O3269       O  0.58591104  0.55337193  0.45962965    -0.86260
O3270       O  0.98373776  0.91905994  0.97765814    -0.86660
O3271       O  0.95049541  0.59898067  0.49407182    -0.86380
O3272       O  0.53018415  0.60707878  0.54232053    -0.86030
O3273       O  0.56938234  0.93583975  0.98402767    -0.86440
O3274       O  0.53751009  0.95965159  0.41168670    -0.86740
O3275       O  0.49788909  0.56814610  0.42642432    -0.88080
Zr3276     Zr  0.51526146  0.95025295  0.99242977     2.83100
Zr3277     Zr  0.99559457  0.57371502  0.51617700     2.83500
Zr3278     Zr  0.95191242  0.00245396  0.49399677     2.84090
Zr3279     Zr  0.57421269  0.52315486  0.00699001     2.83360
Zr3280     Zr  0.51731813  0.00766034  0.43767773     2.84220
O3281       O  0.52921383  0.54780293  0.48157243    -1.08650
O3282       O  0.99103144  0.97799324  0.45899032    -1.08150
C3283       C  0.54854822  0.93210230  0.41930312     1.06510
C3284       C  0.51126006  0.59216115  0.43965536     1.09130
C3285       C  0.94902045  0.92391813  0.47219334     1.06680
C3286       C  0.59718084  0.94970917  0.98347919     1.07040
C3287       C  0.56516065  0.60281859  0.02694625     1.06630
C3288       C  0.92331062  0.58455740  0.49094470     1.06180
C3289       C  0.94548531  0.01948046  0.41279598     1.06600
C3290       C  0.57655827  0.55700879  0.42999358     1.06120
H3291       H  0.96293819  0.55291296  0.46301094     0.32790
O3292       O  0.97387623  0.53963104  0.47798916    -1.29750
H3293       H  0.57297935  0.97914703  0.45500971     0.32820
O3294       O  0.55614896  0.98677545  0.46947905    -1.31130
C3295       C  0.50573569  0.63291591  0.18840331     0.03050
C3296       C  0.47299075  0.64159451  0.19578701    -0.13100
C3297       C  0.45350474  0.65402617  0.17109503     0.00550
C3298       C  0.46905559  0.67622574  0.15045379    -0.11630
C3299       C  0.50213768  0.67263321  0.14112072     0.03040
C3300       C  0.52100008  0.65021518  0.16054489    -0.11050
H3301       H  0.46025809  0.62877844  0.21543058     0.08630
H3302       H  0.45380793  0.69068556  0.13556706     0.06160
H3303       H  0.54490681  0.64336329  0.15168110     0.06010
O3304       O  0.99256816  0.57784362  0.19869045    -0.75370
O3305       O  0.54044393  0.59077551  0.21720954    -0.54280
C3306       C  0.51420287  0.59863020  0.20228573     0.78360
O3307       O  0.91430491  0.48726563  0.29861079    -0.59970
O3308       O  0.89629461  0.94827883  0.28609088    -0.53000
C3309       C  0.88768616  0.97274975  0.30349668     0.70370
O3310       O  0.97506967  0.58616828  0.30016547    -0.74530
O3311       O  0.52705842  0.59070699  0.27661369    -0.55100
C3312       C  0.50129589  0.60383336  0.29105173     0.76370
O3313       O  0.91280848  0.50942517  0.18825530    -0.59680
O3314       O  0.90189336  0.96030917  0.21439736    -0.52800
C3315       C  0.89274290  0.98310088  0.19415399     0.72960
Zr3316     Zr  0.96817948  0.52240852  0.20325685     2.54710
O3317       O  0.91987804  0.55495561  0.21391494    -0.80240
O3318       O  0.97065282  0.51069787  0.14601956    -0.93660
Zr3319     Zr  0.96198813  0.52657115  0.29628567     2.64680
O3320       O  0.91929243  0.56715416  0.29441047    -0.98610
O3321       O  0.97059387  0.53012191  0.35375354    -0.80680
O3322       O  0.98864673  0.54654415  0.24902676    -0.84030
O3323       O  0.94317812  0.50026986  0.25013247    -2.18740
O3324       O  0.51615281  0.89479928  0.19769720    -0.67420
O3325       O  0.96134908  0.89218980  0.22295570    -0.51990
C3326       C  0.98530354  0.87853488  0.20639503     0.71350
O3327       O  0.58284641  0.97413640  0.31264011    -0.60330
O3328       O  0.59340135  0.52354107  0.28468176    -0.52310
C3329       C  0.60475198  0.49926315  0.30179912     0.73150
O3330       O  0.49825428  0.90638757  0.31542266    -0.71730
O3331       O  0.95266542  0.89556871  0.28916618    -0.50400
C3332       C  0.97520124  0.88806993  0.30919719     0.74530
O3333       O  0.58920869  0.97383147  0.19275152    -0.67060
O3334       O  0.59202401  0.52423563  0.21378107    -0.54250
C3335       C  0.60462262  0.49964898  0.19879761     0.72910
Zr3336     Zr  0.53464464  0.95262073  0.20713049     2.77540
O3337       O  0.57956452  0.91527457  0.21204874    -0.97800
O3338       O  0.53269471  0.95825378  0.14890876    -0.78630
Zr3339     Zr  0.52591144  0.95889348  0.30041800     2.70070
O3340       O  0.56506066  0.91711953  0.31039841    -0.79870
O3341       O  0.51635764  0.97572203  0.35433552    -0.98960
Zr3342     Zr  0.54533799  0.53835845  0.24914021     2.21500
Zr3343     Zr  0.94734947  0.94373847  0.25249604     2.11130
O3344       O  0.50692854  0.93312395  0.25418745    -2.47640
O3345       O  0.55250934  0.98019085  0.25376377    -0.79670
O3346       O  0.97498403  0.96438003  0.20460362    -0.71860
O3347       O  0.51916013  0.51715404  0.29675915    -2.32820
O3348       O  0.52480189  0.51027419  0.20272290    -2.29030
O3349       O  0.96726000  0.97091404  0.29972596    -0.73620
H3350       H  0.92068504  0.50615265  0.24841941     0.78380
H3351       H  0.52777116  0.52846525  0.31482043     0.79460
H3352       H  0.51147487  0.91049129  0.25632442     0.81690
H3353       H  0.53545898  0.51850111  0.18333818     0.79300
H3354       H  0.97074382  0.50730083  0.36046191     0.42330
H3355       H  0.50806525  0.95547856  0.36427991     0.41300
H3356       H  0.56910438  0.90701848  0.28906000     0.40980
H3357       H  0.57173930  0.89892132  0.22809472     0.38910
H3358       H  0.50930971  0.95814278  0.14418336     0.42050
H3359       H  0.99251858  0.51407107  0.13579668     0.36830
H3360       H  0.92619211  0.56992790  0.23122846     0.42950
H3361       H  0.89907410  0.55561719  0.28894071     0.39360
H3362       H  0.58078607  0.90366466  0.19121265     0.44280
H3363       H  0.95469229  0.52497121  0.13626279     0.43000
H3364       H  0.91550298  0.57550600  0.31656563     0.43140
H3365       H  0.53915297  0.97849173  0.36056549     0.43500
C3366       C  0.86031412  0.48336608  0.18294440     0.03050
C3367       C  0.84203918  0.45600597  0.19257682    -0.13100
C3368       C  0.82928241  0.43915733  0.16701921     0.00550
C3369       C  0.80809024  0.45835145  0.14926023    -0.11630
C3370       C  0.81900863  0.48945237  0.13879719     0.03040
C3371       C  0.84811405  0.50115860  0.15493343    -0.11050
H3372       H  0.84950157  0.44181972  0.21302260     0.08630
H3373       H  0.78953724  0.44603230  0.13589488     0.06160
H3374       H  0.86197912  0.52131820  0.14473218     0.06010
C3375       C  0.48086211  0.84577726  0.18782432     0.03050
C3376       C  0.44856068  0.84762374  0.17832182    -0.13100
C3377       C  0.44448562  0.84448938  0.14584651     0.00550
C3378       C  0.45381199  0.81474935  0.13498599    -0.11630
C3379       C  0.48609930  0.80523897  0.13986765     0.03040
C3380       C  0.50097669  0.82222289  0.16783727    -0.11050
H3381       H  0.43085591  0.86292676  0.19037468     0.08630
H3382       H  0.44011602  0.80578940  0.11532380     0.06160
H3383       H  0.52692468  0.82068611  0.17110697     0.06010
C3384       C  0.63935269  0.50340427  0.18755839     0.03050
C3385       C  0.65654629  0.52901178  0.20187492    -0.13100
C3386       C  0.67595643  0.54709800  0.18055383     0.00550
C3387       C  0.69861571  0.52643404  0.16514352    -0.11630
C3388       C  0.68512081  0.50123731  0.14677632     0.03040
C3389       C  0.65379375  0.48929835  0.15864226    -0.11050
H3390       H  0.64649331  0.54119959  0.22297771     0.08630
H3391       H  0.72311296  0.53509554  0.15969763     0.06160
H3392       H  0.64003181  0.47235319  0.14455418     0.06010
C3393       C  0.98109351  0.85297444  0.31921389     0.03050
C3394       C  0.01358928  0.84408052  0.31166249    -0.13100
C3395       C  0.03044916  0.82884638  0.33586985     0.00550
C3396       C  0.01348803  0.80224600  0.34900149    -0.11630
C3397       C  0.98047014  0.80634734  0.35914495     0.03040
C3398       C  0.96366250  0.83318456  0.34376703    -0.11050
H3399       H  0.02808986  0.85908928  0.29496761     0.08630
H3400       H  0.02796949  0.78469812  0.36141109     0.06160
H3401       H  0.94063149  0.84131500  0.35401498     0.06010
C3402       C  0.63990410  0.50217376  0.31552186     0.03050
C3403       C  0.65467112  0.53237112  0.31032621    -0.13100
C3404       C  0.67141824  0.54522774  0.33589002     0.00550
C3405       C  0.69504373  0.52482782  0.34812849    -0.11630
C3406       C  0.68627412  0.49243162  0.35549784     0.03040
C3407       C  0.65694180  0.48090318  0.33845655    -0.11050
H3408       H  0.64444050  0.54915488  0.29349071     0.08630
H3409       H  0.71399954  0.53629442  0.36167725     0.06160
H3410       H  0.64563709  0.45819595  0.34535755     0.06010
C3411       C  0.50498272  0.63960456  0.30468391     0.03050
C3412       C  0.53803102  0.64997743  0.30495287    -0.13100
C3413       C  0.54921730  0.66216552  0.33410689     0.00550
C3414       C  0.53028560  0.68746369  0.34598425    -0.11630
C3415       C  0.49694952  0.68035659  0.35251453     0.03040
C3416       C  0.48333254  0.65658446  0.32902109    -0.11050
H3417       H  0.55614837  0.63804315  0.28984954     0.08630
H3418       H  0.54250766  0.70446453  0.36142949     0.06160
H3419       H  0.45828167  0.64863144  0.33170336     0.06010
C3420       C  0.85233346  0.97738760  0.31623664     0.03050
C3421       C  0.84464103  0.01029676  0.31603466    -0.13100
C3422       C  0.83206744  0.02190447  0.34491000     0.00550
C3423       C  0.80280823  0.00674982  0.35198284    -0.11630
C3424       C  0.80466431  0.97347870  0.35721425     0.03040
C3425       C  0.83092048  0.95739499  0.33798547    -0.11050
H3426       H  0.85831691  0.02716015  0.30073199     0.08630
H3427       H  0.78408657  0.02091192  0.36412508     0.06160
H3428       H  0.83715197  0.93265880  0.34295680     0.06010
O3429       O  0.68820936  0.97430229  0.09147786    -0.75370
O3430       O  0.71808494  0.52027901  0.10154071    -0.54280
C3431       C  0.69882753  0.49737904  0.11240709     0.78360
O3432       O  0.79820499  0.90843301  0.99743935    -0.59970
O3433       O  0.77679144  0.89317287  0.45210040    -0.53000
C3434       C  0.79711340  0.88787269  0.47489835     0.70370
O3435       O  0.80890779  0.97367834  0.08040671    -0.74530
O3436       O  0.78813533  0.52385480  0.09884310    -0.55100
C3437       C  0.80628102  0.49856543  0.10502413     0.76370
O3438       O  0.68647173  0.89920015  0.02078401    -0.59680
O3439       O  0.70444457  0.89666038  0.46992085    -0.52800
C3440       C  0.68641196  0.88588475  0.49447883     0.72960
Zr3441     Zr  0.69636138  0.95736760  0.03442681     2.54710
O3442       O  0.68256586  0.91576762  0.07465095    -0.80240
O3443       O  0.63907010  0.96917390  0.03780239    -0.93660
Zr3444     Zr  0.79037389  0.95774311  0.02819277     2.64680
O3445       O  0.77157520  0.92036153  0.07090336    -0.98610
O3446       O  0.84725168  0.97641849  0.02690374    -0.80680
O3447       O  0.74494375  0.98062744  0.05371648    -0.84030
O3448       O  0.74257661  0.93506625  0.00776039    -2.18740
O3449       O  0.69536097  0.50565006  0.41106945    -0.67420
O3450       O  0.70565460  0.96098063  0.40403608    -0.51990
C3451       C  0.68932019  0.98706573  0.39686314     0.71350
O3452       O  0.78160182  0.58008582  0.48418855    -0.60330
O3453       O  0.78222749  0.58975230  0.04396794    -0.52310
C3454       C  0.78634511  0.60088688  0.01475892     0.73150
O3455       O  0.80920337  0.49867984  0.41230742    -0.71730
O3456       O  0.77212089  0.94213147  0.39934574    -0.50400
C3457       C  0.79021199  0.96657546  0.39129167     0.74530
O3458       O  0.69028106  0.58199043  0.48510772    -0.67060
O3459       O  0.71653527  0.58879898  0.03678689    -0.54250
C3460       C  0.69854053  0.60083661  0.01384591     0.72910
Zr3461     Zr  0.70165021  0.52542995  0.46707830     2.77540
O3462       O  0.71451146  0.57074826  0.43062415    -0.97800
O3463       O  0.64370768  0.52295280  0.47037107    -0.78630
Zr3464     Zr  0.79326656  0.52342915  0.46402261     2.70070
O3465       O  0.79213984  0.55640111  0.41526119    -0.79870
O3466       O  0.85101417  0.51597276  0.46378492    -0.98960
Zr3467     Zr  0.74938886  0.53864155  0.05252367     2.21500
Zr3468     Zr  0.74043769  0.94308936  0.45152723     2.11130
O3469       O  0.74717423  0.50014866  0.44229578    -2.47640
O3470       O  0.74827186  0.54516742  0.49101465    -0.79670
O3471       O  0.69564568  0.96987529  0.48057275    -0.71860
O3472       O  0.79543648  0.51845694  0.02335776    -2.32820
O3473       O  0.70162303  0.51345487  0.02992946    -2.29030
O3474       O  0.79070077  0.96660902  0.47134491    -0.73620
H3475       H  0.74297274  0.91250753  0.01304945     0.78380
H3476       H  0.81410242  0.52906451  0.03215557     0.79460
H3477       H  0.74966477  0.50567863  0.41972171     0.81690
H3478       H  0.68240756  0.52165790  0.04065330     0.79300
H3479       H  0.85156463  0.99159752  0.04465080     0.42330
H3480       H  0.85410105  0.49345274  0.45661876     0.41300
H3481       H  0.77756462  0.57456860  0.42051486     0.40980
H3482       H  0.72289727  0.56119909  0.41024051     0.38910
H3483       H  0.64062919  0.50414166  0.45635979     0.42050
H3484       H  0.63836544  0.99258571  0.04167960     0.36830
H3485       H  0.70336150  0.90619511  0.08094120     0.42950
H3486       H  0.75341108  0.93062568  0.08306844     0.39360
H3487       H  0.69396811  0.58103749  0.42486348     0.44280
H3488       H  0.63109822  0.95942943  0.05851703     0.43000
H3489       H  0.76199499  0.90111086  0.06074350     0.43140
H3490       H  0.85730927  0.52912142  0.44478535     0.43500
O3491       O  0.97345885  0.77136835  0.09282607    -0.75370
O3492       O  0.52858655  0.77950645  0.10020544    -0.54280
C3493       C  0.49859210  0.78336520  0.11070291     0.78360
O3494       O  0.90500015  0.67667515  0.02016087    -0.59970
O3495       O  0.89905492  0.70344789  0.47218484    -0.53000
C3496       C  0.88802612  0.68461906  0.49580213     0.70370
O3497       O  0.98593501  0.67870687  0.08572242    -0.74530
O3498       O  0.53183301  0.70719228  0.09918604    -0.55100
C3499       C  0.50890422  0.68599428  0.10637576     0.76370
O3500       O  0.91169128  0.79228394  0.99953491    -0.59680
O3501       O  0.89751902  0.77396295  0.45175826    -0.52800
C3502       C  0.89158516  0.79264591  0.47605191     0.72960
Zr3503     Zr  0.95845832  0.78500430  0.03617402     2.54710
O3504       O  0.90860794  0.78809063  0.06914705    -0.80240
O3505       O  0.97157645  0.83848967  0.05672262    -0.93660
Zr3506     Zr  0.96212435  0.69322431  0.03298074     2.64680
O3507       O  0.92252816  0.69902211  0.07724824    -0.98610
O3508       O  0.97370844  0.63810065  0.02663235    -0.80680
O3509       O  0.98354934  0.73951224  0.05723625    -0.84030
O3510       O  0.93738814  0.73856234  0.01072620    -2.18740
O3511       O  0.49669430  0.79882654  0.41121722    -0.67420
O3512       O  0.95159556  0.77337768  0.40206648    -0.51990
C3513       C  0.97490736  0.79348483  0.39389896     0.71350
O3514       O  0.58492788  0.67924418  0.48440237    -0.60330
O3515       O  0.58915265  0.70825006  0.03455111    -0.52310
C3516       C  0.60211777  0.69080904  0.01120715     0.73150
O3517       O  0.51047279  0.68494542  0.40960373    -0.71730
O3518       O  0.96017034  0.70577996  0.39907932    -0.50400
C3519       C  0.98678985  0.69075639  0.38966888     0.74530
O3520       O  0.56983128  0.78618117  0.50088428    -0.67060
O3521       O  0.59581026  0.77438392  0.04528359    -0.54250
C3522       C  0.59990794  0.79014643  0.01858629     0.72910
Zr3523     Zr  0.52499009  0.78805652  0.46234671     2.77540
O3524       O  0.56666896  0.78101199  0.41951515    -0.97800
O3525       O  0.52542843  0.84419159  0.44458751    -0.78630
Zr3526     Zr  0.53003283  0.69703633  0.46589598     2.70070
O3527       O  0.57759864  0.70238636  0.43028149    -0.79870
O3528       O  0.51315569  0.64851945  0.49098527    -0.98960
Zr3529     Zr  0.54228563  0.74412360  0.05066366     2.21500
Zr3530     Zr  0.94650079  0.73789401  0.45122635     2.11130
O3531       O  0.50369560  0.74045124  0.44159112    -2.47640
O3532       O  0.54975377  0.74465939  0.48906668    -0.79670
O3533       O  0.96981339  0.78444737  0.47671754    -0.71860
O3534       O  0.52100133  0.69842340  0.02216443    -2.32820
O3535       O  0.51574053  0.79149257  0.02773179    -2.29030
O3536       O  0.97208544  0.69237263  0.47600980    -0.73620
H3537       H  0.91464104  0.73774507  0.01724495     0.78380
H3538       H  0.53147599  0.67936512  0.03007108     0.79460
H3539       H  0.50887359  0.74101685  0.41875007     0.81690
H3540       H  0.52479565  0.81029561  0.03784044     0.79300
H3541       H  0.98573873  0.63449310  0.04655645     0.42330
H3542       H  0.49751804  0.63968895  0.47575881     0.41300
H3543       H  0.58898132  0.72216677  0.43734466     0.40980
H3544       H  0.55872576  0.76353311  0.40557639     0.38910
H3545       H  0.54544760  0.84659448  0.43077166     0.42050
H3546       H  0.99106164  0.84834595  0.04591630     0.36830
H3547       H  0.90630485  0.76692217  0.08010384     0.42950
H3548       H  0.93232723  0.71544096  0.09129588     0.39360
H3549       H  0.56592338  0.80058317  0.40581423     0.44280
H3550       H  0.97989222  0.83369759  0.07812641     0.43000
H3551       H  0.90358340  0.71014471  0.06841314     0.43140
H3552       H  0.53438484  0.63789918  0.48888034     0.43500
C3553       C  0.68297935  0.63515751  0.01904716     0.03050
C3554       C  0.69092456  0.65050350  0.04842195    -0.13100
C3555       C  0.66509289  0.66532323  0.06576486     0.00550
C3556       C  0.65001400  0.68792991  0.04661358    -0.11630
C3557       C  0.63643690  0.67640944  0.01796788     0.03040
C3558       C  0.65416154  0.64898457  0.00326493    -0.11050
H3559       H  0.71022267  0.64080434  0.06259652     0.08630
H3560       H  0.64008146  0.70881713  0.05869984     0.06160
H3561       H  0.64456393  0.63754089  0.98214167     0.06010
C3562       C  0.67620501  0.84790798  0.99240291     0.03050
C3563       C  0.67097260  0.84006098  0.95991066    -0.13100
C3564       C  0.63459869  0.83772779  0.44924162     0.00550
C3565       C  0.63031297  0.80433830  0.97020321    -0.11630
C3566       C  0.63189808  0.80500343  0.00396861     0.03040
C3567       C  0.65559550  0.82896424  0.01615264    -0.11050
H3568       H  0.68189289  0.85552211  0.43900556     0.08630
H3569       H  0.61534983  0.78683724  0.95819890     0.06160
H3570       H  0.65476891  0.83558436  0.04140333     0.06010
C3571       C  0.85009137  0.67392019  0.99640100     0.03050
C3572       C  0.83564405  0.68038852  0.96669709    -0.13100
C3573       C  0.82096133  0.65382752  0.95294052     0.00550
C3574       C  0.79455756  0.64350271  0.97289777    -0.11630
C3575       C  0.80169794  0.63454473  0.00515650     0.03040
C3576       C  0.83142248  0.65055424  0.01729963    -0.11050
H3577       H  0.84590162  0.69837425  0.95016011     0.08630
H3578       H  0.77428602  0.63236612  0.96094370     0.06160
H3579       H  0.84132328  0.64273673  0.03983820     0.06010
C3580       C  0.85947636  0.81171397  0.48293189     0.03050
C3581       C  0.85602101  0.81660974  0.51648636    -0.13100
C3582       C  0.85283548  0.84839795  0.52537235     0.00550
C3583       C  0.82179620  0.85571935  0.51604195    -0.11630
C3584       C  0.81632275  0.85632844  0.48243213     0.03040
C3585       C  0.83844882  0.83385548  0.46401707    -0.11050
H3586       H  0.86543551  0.79994629  0.53377459     0.08630
H3587       H  0.80534582  0.86667011  0.53357410     0.06160
H3588       H  0.84127164  0.83558000  0.43799555     0.06010
C3589       C  0.89669001  0.89889956  0.46221529    -0.20390
C3590       C  0.92910581  0.89461859  0.46844681    -0.06950
C3591       C  0.94022837  0.86809846  0.99034865     0.13910
C3592       C  0.91537132  0.85743372  0.01203077    -0.20440
C3593       C  0.88076453  0.86973845  0.51150799    -0.06960
C3594       C  0.87516164  0.89432632  0.48852539     0.13900
C3595       C  0.86284488  0.92510751  0.50056325    -0.23790
H3596       H  0.89118880  0.91720178  0.44480309     0.15190
H3597       H  0.92011372  0.83879913  0.02926511     0.15220
C3598       C  0.97178924  0.85156115  0.98649173    -0.23740
H3599       H  0.88411301  0.93964529  0.50787278     0.05430
H3600       H  0.84821614  0.92062889  0.01573258     0.08660
H3601       H  0.85034980  0.93842312  0.48128047     0.08660
H3602       H  0.99281528  0.86677680  0.99258358     0.08640
H3603       H  0.96981238  0.84489836  0.45834959     0.08640
H3604       H  0.97216613  0.83099462  0.00240307     0.05420
C3605       C  0.90636511  0.62572369  0.45071139    -0.20390
C3606       C  0.89813550  0.60159667  0.47409119    -0.06950
C3607       C  0.87108735  0.59523527  0.98585375     0.13910
C3608       C  0.84583694  0.60092040  0.96577924    -0.20440
C3609       C  0.84933949  0.62867083  0.43748969    -0.06960
C3610       C  0.88199088  0.63871361  0.43140211     0.13900
C3611       C  0.89024206  0.66365076  0.40590527    -0.23790
H3612       H  0.93112011  0.63475846  0.44788151     0.15190
H3613       H  0.82481641  0.58669900  0.96897033     0.15220
C3614       C  0.86581696  0.58237794  0.02027176    -0.23740
H3615       H  0.90646034  0.65310837  0.38696284     0.05430
H3616       H  0.89625189  0.68222343  0.91349726     0.08660
H3617       H  0.86797418  0.67204479  0.39408660     0.08660
H3618       H  0.87712603  0.59933370  0.03725942     0.08640
H3619       H  0.86684838  0.54605091  0.50963112     0.08640
H3620       H  0.84006415  0.57984346  0.02723445     0.05420
C3621       C  0.62270242  0.90348125  0.99868868    -0.20390
C3622       C  0.62278194  0.92713438  0.97514868    -0.06950
C3623       C  0.62476238  0.92627788  0.45005905     0.13910
C3624       C  0.62740034  0.89548517  0.43620706    -0.20440
C3625       C  0.61735371  0.86119882  0.95843075    -0.06960
C3626       C  0.61046294  0.87347809  0.99040073     0.13900
C3627       C  0.58432099  0.86133894  0.01368419    -0.23790
H3628       H  0.61968875  0.91082581  0.02378089     0.15190
H3629       H  0.64105919  0.89231830  0.41358942     0.15220
C3630       C  0.63327574  0.95455800  0.42959011    -0.23740
H3631       H  0.56893944  0.88154987  0.02199955     0.05430
H3632       H  0.59474617  0.85098492  0.03572352     0.08660
H3633       H  0.56763829  0.84506718  0.00210174     0.08660
H3634       H  0.64991817  0.97007179  0.44287774     0.08640
H3635       H  0.61167637  0.96816772  0.42286054     0.08640
H3636       H  0.64484576  0.94621019  0.40676610     0.05420
C3637       C  0.58244601  0.63854709  0.07289307    -0.20390
C3638       C  0.58922496  0.61403899  0.04996023    -0.06950
C3639       C  0.61938791  0.59890007  0.05087125     0.13910
C3640       C  0.64211148  0.61057214  0.07181338    -0.20440
C3641       C  0.64043206  0.64230840  0.08230029    -0.06960
C3642       C  0.60846855  0.65245986  0.08995304     0.13900
C3643       C  0.60318595  0.67748004  0.11548262    -0.23790
H3644       H  0.55807547  0.64784726  0.07601811     0.15190
H3645       H  0.66527321  0.60003949  0.06915907     0.15220
C3646       C  0.63105062  0.57507069  0.02600284    -0.23740
H3647       H  0.61430250  0.66928408  0.13813663     0.05430
H3648       H  0.58121490  0.68123016  0.62228982     0.08660
H3649       H  0.61442327  0.70086195  0.10800963     0.08660
H3650       H  0.61071454  0.55378816  0.52024444     0.08640
H3651       H  0.65383319  0.56379098  0.03257523     0.08640
H3652       H  0.63330410  0.58695499  0.00207784     0.05420
C3653       C  0.89406825  0.51544752  0.34933099    -0.20390
C3654       C  0.85695997  0.02205184  0.37115260    -0.06950
C3655       C  0.87468990  0.99340560  0.37971450     0.13910
C3656       C  0.90831408  0.99475125  0.37841514    -0.20440
C3657       C  0.92257260  0.02329182  0.38712016    -0.06960
C3658       C  0.90223311  0.50371446  0.37864097     0.13900
C3659       C  0.91416295  0.46965125  0.38218823    -0.23790
H3660       H  0.91555352  0.52486006  0.33711399     0.15190
H3661       H  0.92173241  0.97265732  0.38220722     0.15220
C3662       C  0.86285936  0.96787590  0.40382916    -0.23740
H3663       H  0.91270205  0.45609821  0.35928588     0.05430
H3664       H  0.93501741  0.08565145  0.40673749     0.08660
H3665       H  0.93978601  0.46935581  0.38952242     0.08660
H3666       H  0.85528236  0.94509284  0.39255254     0.08640
H3667       H  0.83547483  0.59023800  0.34351303     0.08640
H3668       H  0.88243031  0.96152048  0.42037394     0.05420
C3669       C  0.55328415  0.63150209  0.41856603    -0.20390
C3670       C  0.52122408  0.61804215  0.41832322    -0.06950
C3671       C  0.00729048  0.61999886  0.39239115     0.13910
C3672       C  0.02606288  0.61832690  0.36490024    -0.20440
C3673       C  0.55181223  0.63703273  0.36020242    -0.06960
C3674       C  0.56791164  0.64328949  0.38908310     0.13900
C3675       C  0.60199431  0.65690772  0.38724235    -0.23790
H3676       H  0.56720350  0.63077220  0.44028686     0.15190
H3677       H  0.01738643  0.60287815  0.34682526     0.15220
C3678       C  0.97145769  0.60975693  0.39217118    -0.23740
H3679       H  0.61309598  0.65692419  0.41133857     0.05430
H3680       H  0.60194950  0.68177849  0.37725985     0.08660
H3681       H  0.61755335  0.64205511  0.37095132     0.08660
H3682       H  0.96159883  0.60150260  0.41603675     0.08640
H3683       H  0.96738461  0.59026857  0.37446023     0.08640
H3684       H  0.95653724  0.63060534  0.38610740     0.05420
C3685       C  0.62597581  0.07288881  0.33815302    -0.20390
C3686       C  0.64985051  0.56222144  0.36056333    -0.06950
C3687       C  0.64666461  0.54986467  0.39252667     0.13910
C3688       C  0.63142410  0.57143579  0.41356568    -0.20440
C3689       C  0.59870013  0.57414980  0.40597251    -0.06960
C3690       C  0.60394643  0.05912921  0.36127834     0.13900
C3691       C  0.57031851  0.05173378  0.35020176    -0.23790
H3692       H  0.61842060  0.07653912  0.31359149     0.15190
H3693       H  0.63833209  0.57137277  0.43847580     0.15220
C3694       C  0.62871671  0.51700580  0.39445588    -0.23740
H3695       H  0.56758564  0.05921463  0.32482647     0.05430
H3696       H  0.54220594  0.55952470  0.36815927     0.08660
H3697       H  0.56554796  0.02561811  0.35203640     0.08660
H3698       H  0.64387494  0.49754668  0.39867574     0.08640
H3699       H  0.69505325  0.10812769  0.40634459     0.08640
H3700       H  0.61103491  0.51363128  0.41467218     0.05420
C3701       C  0.01719457  0.86580841  0.38078993    -0.20390
C3702       C  0.04152977  0.85323167  0.36012372    -0.06950
C3703       C  0.57022701  0.86603323  0.35937580     0.13910
C3704       C  0.57430404  0.89398457  0.37860548    -0.20440
C3705       C  0.04662141  0.91427649  0.38934179    -0.06960
C3706       C  0.01721678  0.89714705  0.39025650     0.13900
C3707       C  0.98492569  0.91000804  0.40272762    -0.23790
H3708       H  0.99553328  0.85319783  0.38774376     0.15190
H3709       H  0.59787760  0.90565567  0.37981382     0.15220
C3710       C  0.59840242  0.85272655  0.33986342    -0.23740
H3711       H  0.97491057  0.89334538  0.42151417     0.05430
H3712       H  0.96755685  0.91032565  0.38274694     0.08660
H3713       H  0.98621223  0.93460828  0.41272898     0.08660
H3714       H  0.59268003  0.85260680  0.31384541     0.08640
H3715       H  0.60308135  0.82767842  0.34787877     0.08640
H3716       H  0.62090424  0.86736950  0.34285058     0.05420
C3717       C  0.64262983  0.54826886  0.10488591    -0.20390
C3718       C  0.60894093  0.54416318  0.11386718    -0.06950
C3719       C  0.59759922  0.06054316  0.14077777     0.13910
C3720       C  0.62103884  0.07169843  0.16258162    -0.20440
C3721       C  0.65553518  0.56716019  0.15779798    -0.06960
C3722       C  0.66405027  0.56573532  0.12514742     0.13900
C3723       C  0.69609590  0.58146416  0.11440703    -0.23790
H3724       H  0.65156187  0.54030771  0.08165084     0.15190
H3725       H  0.61325124  0.08028082  0.18624252     0.15220
C3726       C  0.56410314  0.07301316  0.14368425    -0.23740
H3727       H  0.69349391  0.60803761  0.11506762     0.05430
H3728       H  0.70150623  0.07384340  0.08638162     0.08660
H3729       H  0.71637022  0.57647454  0.13034392     0.08660
H3730       H  0.55834128  0.08542533  0.12078789     0.08880
H3731       H  0.56405332  0.59321560  0.16301236     0.08640
H3732       H  0.54633212  0.05344563  0.14861439     0.05420
C3733       C  0.49251441  0.88062601  0.12746566    -0.20390
C3734       C  0.45930852  0.87068131  0.12480910    -0.06950
C3735       C  0.94276703  0.88245091  0.09719501     0.13910
C3736       C  0.96086783  0.90172942  0.07493704    -0.20440
C3737       C  0.49289074  0.90707412  0.07746932    -0.06960
C3738       C  0.50957840  0.89744759  0.10397963     0.13900
C3739       C  0.54644922  0.90116754  0.10565584    -0.23790
H3740       H  0.50800384  0.87395989  0.14577168     0.15190
H3741       H  0.94995411  0.90966807  0.05285678     0.15220
C3742       C  0.90966954  0.87004840  0.08949352    -0.23740
H3743       H  0.55586483  0.89269216  0.12902351     0.05430
H3744       H  0.55403606  0.92672101  0.10230808     0.08660
H3745       H  0.55838897  0.88683137  0.08612411     0.08660
H3746       H  0.89295634  0.87200463  0.11081808     0.08640
H3747       H  0.91081529  0.84432912  0.08352228     0.08640
H3748       H  0.89996857  0.88319961  0.06888231     0.05420
C3749       C  0.87837933  0.94015212  0.08184704    -0.20390
C3750       C  0.90384193  0.45099992  0.10604394    -0.06950
C3751       C  0.91175423  0.43791670  0.13693882     0.13910
C3752       C  0.88752901  0.42209374  0.15657378    -0.20440
C3753       C  0.85511435  0.42137195  0.14707624    -0.06960
C3754       C  0.85472823  0.92400702  0.10173148     0.13900
C3755       C  0.83226948  0.89998971  0.08771120    -0.23790
H3756       H  0.87687999  0.93910257  0.05614225     0.15190
H3757       H  0.89267085  0.41498755  0.18105480     0.15220
C3758       C  0.94427571  0.44111598  0.15113419    -0.23740
H3759       H  0.84413257  0.87633226  0.08542056     0.05430
H3760       H  0.83243369  0.39376909  0.07457817     0.08660
H3761       H  0.81046811  0.89600340  0.10382507     0.08660
H3762       H  0.96451349  0.43725310  0.13370938     0.08640
H3763       H  0.94785615  0.93227287  0.16392817     0.08640
H3764       H  0.94523349  0.46522314  0.16072407     0.05420
C3765       C  0.43817912  0.59910459  0.15747295    -0.20390
C3766       C  0.42948547  0.63107322  0.15529003    -0.06950
C3767       C  0.91382713  0.63923404  0.12748908     0.13910
C3768       C  0.91825912  0.61862252  0.09993513    -0.20440
C3769       C  0.43732557  0.59041615  0.10134152    -0.06960
C3770       C  0.45277017  0.58591949  0.13012842     0.13900
C3771       C  0.48959823  0.58380003  0.12822045    -0.23790
H3772       H  0.44524879  0.59100967  0.18005592     0.15190
H3773       H  0.90645099  0.62382337  0.07759859     0.15220
C3774       C  0.88801736  0.66452507  0.12846067    -0.23740
H3775       H  0.49837652  0.56915620  0.14745265     0.05430
H3776       H  0.49973989  0.60809816  0.12790300     0.08660
H3777       H  0.50125553  0.57374171  0.10618186     0.08660
H3778       H  0.89836051  0.68837274  0.13471692     0.08640
H3779       H  0.86922030  0.65791488  0.14733075     0.08640
H3780       H  0.87572192  0.66621295  0.10504190     0.05420
O3781       O  0.95074525  0.58303509  0.55376174    -0.86570
O3782       O  0.02055889  0.90744632  0.52595374    -0.86740
O3783       O  0.95879063  0.97787297  0.58677983    -0.88410
O3784       O  0.55353469  0.51655502  0.60137128    -0.87160
O3785       O  0.59343949  0.52383923  0.56183726    -0.86750
O3786       O  0.92234706  0.98112421  0.54590862    -0.88120
O3787       O  0.03220159  0.94980474  0.55431874    -0.86600
O3788       O  0.96037985  0.54212073  0.58796771    -0.86190
Zr3789     Zr  0.00187069  0.50048648  0.57233180     2.84310
O3790       O  0.54997964  0.98186647  0.53428792    -1.08160
O3791       O  0.96913632  0.53032709  0.54052944    -1.08890
C3792       C  0.94585793  0.56877440  0.58058192     1.06540
C3793       C  0.01791328  0.92246051  0.55204071     1.06480
C3794       C  0.93048321  0.97225144  0.57529057     1.09460
C3795       C  0.58316801  0.52562237  0.59135809     1.07240
H3796       H  0.97300982  0.95500587  0.53230607     0.32800
O3797       O  0.98635563  0.97265610  0.52461730    -1.29110
H3798       H  0.53672409  0.55505912  0.56496021     0.32470
O3799       O  0.52864243  0.54181018  0.54800047    -1.30790
O3800       O  0.53730622  0.93309008  0.94218890    -0.86570
O3801       O  0.53258108  0.58645533  0.95796771    -0.88060
O3802       O  0.93743603  0.94876881  0.97516869    -0.86640
O3803       O  0.62207073  0.98572022  0.49517890    -0.86690
O3804       O  0.56497473  0.58236883  0.50978195    -0.86400
O3805       O  0.92123719  0.55266954  0.99222307    -0.86210
O3806       O  0.97412699  0.01061148  0.90624254    -0.86580
O3807       O  0.56559706  0.52178835  0.91151210    -0.86040
O3808       O  0.92965157  0.01155938  0.94086236    -0.87110
O3809       O  0.59471242  0.54368608  0.95196397    -0.86260
O3810       O  0.97967049  0.92017655  0.47532899    -0.86660
O3811       O  0.95547213  0.59597091  0.98345477    -0.86380
O3812       O  0.53556937  0.60998037  0.03132120    -0.86030
O3813       O  0.58020791  0.96176399  0.51594160    -0.86440
O3814       O  0.52239303  0.97365254  0.90960315    -0.86740
O3815       O  0.52001154  0.55872468  0.91305089    -0.88080
Zr3816     Zr  0.52835010  0.94551084  0.49597670     2.83100
Zr3817     Zr  0.99904642  0.57136073  0.00640338     2.83500
Zr3818     Zr  0.95165859  0.00191357  0.99213692     2.84090
Zr3819     Zr  0.56816807  0.52293025  0.50937685     2.83360
Zr3820     Zr  0.50493094  0.01808298  0.94308711     2.84220
O3821       O  0.53516065  0.54321883  0.97636253    -1.08650
O3822       O  0.99126343  0.97535298  0.95915548    -1.08150
C3823       C  0.53436504  0.94572349  0.91447128     1.06510
C3824       C  0.53494508  0.58095491  0.92744964     1.09130
C3825       C  0.95311820  0.92218446  0.97331180     1.06680
C3826       C  0.60646146  0.95962830  0.49925846     1.07040
C3827       C  0.55945603  0.60077969  0.53398174     1.06630
C3828       C  0.92763501  0.58262859  0.98395052     1.06180
C3829       C  0.94361859  0.01413916  0.91281032     1.06600
C3830       C  0.59029291  0.53770334  0.92149695     1.06120
H3831       H  0.96348664  0.54670489  0.95324935     0.32790
O3832       O  0.97521557  0.53600726  0.96989643    -1.29750
H3833       H  0.56113357  0.98744484  0.95272670     0.32820
O3834       O  0.54477558  0.99237872  0.96913544    -1.31130
C3835       C  0.50823707  0.63292865  0.68836489     0.03050
C3836       C  0.47623780  0.64259036  0.69688872    -0.13100
C3837       C  0.45632768  0.65441201  0.67256313     0.00550
C3838       C  0.47106476  0.67601432  0.65067738    -0.11630
C3839       C  0.50411153  0.67282979  0.64079748     0.03040
C3840       C  0.52285407  0.64945036  0.65945923    -0.11050
H3841       H  0.46372320  0.62987549  0.71675104     0.08630
H3842       H  0.45527207  0.69006046  0.63597698     0.06160
H3843       H  0.54613766  0.64171889  0.64965604     0.06010
O3844       O  0.99192793  0.57789210  0.69451493    -0.75370
O3845       O  0.53940520  0.58967895  0.71920636    -0.54280
C3846       C  0.51476939  0.59798955  0.70180157     0.78360
O3847       O  0.91699365  0.48702602  0.79957772    -0.59970
O3848       O  0.89797115  0.94842472  0.78724889    -0.53000
C3849       C  0.88953996  0.97267819  0.80495691     0.70370
O3850       O  0.98023325  0.58538183  0.80461062    -0.74530
O3851       O  0.53101591  0.58715865  0.78800068    -0.55100
C3852       C  0.50609190  0.59941326  0.80490512     0.76370
O3853       O  0.91459063  0.50917227  0.68459989    -0.59680
O3854       O  0.90339757  0.96209771  0.71624921    -0.52800
C3855       C  0.89398209  0.98549292  0.69673755     0.72960
Zr3856     Zr  0.96994077  0.52224266  0.70122504     2.54710
O3857       O  0.92271346  0.55540451  0.71216083    -0.80240
O3858       O  0.98017117  0.51517937  0.64458331    -0.93660
Zr3859     Zr  0.96249825  0.52854328  0.79257638     2.64680
O3860       O  0.92042117  0.56698968  0.77754171    -0.98610
O3861       O  0.96721298  0.55448712  0.84578024    -0.80680
O3862       O  0.99029029  0.54810986  0.74627847    -0.84030
O3863       O  0.94302237  0.50095949  0.74744579    -2.18740
O3864       O  0.51664516  0.89346327  0.69732294    -0.67420
O3865       O  0.96312587  0.89326619  0.72284183    -0.51990
C3866       C  0.98697669  0.88042198  0.70535832     0.71350
O3867       O  0.58730466  0.97408850  0.80833439    -0.60330
O3868       O  0.59350266  0.52210242  0.78624829    -0.52310
C3869       C  0.60283106  0.49857597  0.80515981     0.73150
O3870       O  0.50314272  0.90918542  0.81643964    -0.71730
O3871       O  0.95313809  0.89515788  0.78946213    -0.50400
C3872       C  0.97563713  0.88711119  0.80922385     0.74530
O3873       O  0.59050583  0.97283463  0.69120326    -0.67060
O3874       O  0.59277234  0.52302220  0.71628130    -0.54250
C3875       C  0.60448897  0.49937786  0.69887482     0.72910
Zr3876     Zr  0.53498980  0.95199148  0.70428289     2.77540
O3877       O  0.58092662  0.91532864  0.70367290    -0.97800
O3878       O  0.52673649  0.95783852  0.64687989    -0.78630
Zr3879     Zr  0.52985266  0.96033852  0.79762030     2.70070
O3880       O  0.57092019  0.91972556  0.80414765    -0.79870
O3881       O  0.52170996  0.98469793  0.84858418    -0.98960
Zr3882     Zr  0.54568871  0.53775309  0.75226092     2.21500
Zr3883     Zr  0.94890488  0.94405645  0.75407293     2.11130
O3884       O  0.50955185  0.93300029  0.75284765    -2.47640
O3885       O  0.55378791  0.98076040  0.74956583    -0.79670
O3886       O  0.97642525  0.96579646  0.70707991    -0.71860
O3887       O  0.51814687  0.51482205  0.79848109    -2.32820
O3888       O  0.52524327  0.51038699  0.70552935    -2.29030
O3889       O  0.96938144  0.96965453  0.80220044    -0.73620
H3890       H  0.92031095  0.50631720  0.74650144     0.78380
H3891       H  0.52560173  0.52488611  0.81765329     0.79460
H3892       H  0.51442768  0.91047716  0.75548462     0.81690
H3893       H  0.53614589  0.51886835  0.68636890     0.79300
H3894       H  0.94792719  0.56824478  0.84979446     0.42330
H3895       H  0.50503467  0.96977644  0.85796933     0.41300
H3896       H  0.57313838  0.90943659  0.78267483     0.40980
H3897       H  0.57552120  0.89914699  0.72074520     0.38910
H3898       H  0.54493737  0.97203969  0.63916779     0.42050
H3899       H  0.99361633  0.53401405  0.63786591     0.36830
H3900       H  0.93185376  0.57572347  0.72061954     0.42950
H3901       H  0.89991244  0.55478799  0.77478025     0.39360
H3902       H  0.57974816  0.90336650  0.68313399     0.44280
H3903       H  0.95795212  0.51919193  0.63742323     0.43000
H3904       H  0.91621744  0.58110739  0.79640711     0.43140
H3905       H  0.54300934  0.98013520  0.85789386     0.43500
C3906       C  0.86112530  0.48397733  0.67941451     0.03050
C3907       C  0.84205293  0.45760597  0.69042413    -0.13100
C3908       C  0.82843204  0.43984054  0.66590635     0.00550
C3909       C  0.80792104  0.45867168  0.64702150    -0.11630
C3910       C  0.81951335  0.48910834  0.63528883     0.03040
C3911       C  0.84911670  0.50080013  0.65070808    -0.11050
H3912       H  0.84916132  0.44421772  0.71153093     0.08630
H3913       H  0.78922921  0.44612974  0.63399187     0.06160
H3914       H  0.86337366  0.52022068  0.63958099     0.06010
C3915       C  0.48128283  0.84416583  0.68755627     0.03050
C3916       C  0.44929539  0.84708437  0.67746978    -0.13100
C3917       C  0.44587099  0.84474303  0.64480044     0.00550
C3918       C  0.45413899  0.81473352  0.63375110    -0.11630
C3919       C  0.48613418  0.80430954  0.63849333     0.03040
C3920       C  0.50099813  0.82024379  0.66726488    -0.11050
H3921       H  0.43186147  0.86271326  0.68947875     0.08630
H3922       H  0.43990643  0.80607775  0.61428301     0.06160
H3923       H  0.52684617  0.81799263  0.67077279     0.06010
C3924       C  0.63899235  0.50322039  0.68585458     0.03050
C3925       C  0.65697122  0.52857362  0.69961957    -0.13100
C3926       C  0.67581847  0.54656295  0.67769174     0.00550
C3927       C  0.69795152  0.52586795  0.66153644    -0.11630
C3928       C  0.68385814  0.50092884  0.64330001     0.03040
C3929       C  0.65259685  0.48915888  0.65622576    -0.11050
H3930       H  0.64776407  0.54081553  0.72103675     0.08630
H3931       H  0.72238892  0.53441646  0.65559091     0.06160
H3932       H  0.63833348  0.47227346  0.64256623     0.06010
C3933       C  0.98080371  0.85199033  0.81909516     0.03050
C3934       C  0.01327954  0.84255325  0.81215110    -0.13100
C3935       C  0.02983771  0.82814602  0.83711345     0.00550
C3936       C  0.01239554  0.80245515  0.85156475    -0.11630
C3937       C  0.97920561  0.80721814  0.86070994     0.03040
C3938       C  0.96276595  0.83314416  0.84378657    -0.11050
H3939       H  0.02803423  0.85701597  0.79518233     0.08630
H3940       H  0.02640392  0.78563286  0.86541330     0.06160
H3941       H  0.93965340  0.84180432  0.85333424     0.06010
C3942       C  0.63720512  0.50101611  0.81963011     0.03050
C3943       C  0.65778833  0.52596700  0.80767859    -0.13100
C3944       C  0.67573071  0.54267169  0.83061961     0.00550
C3945       C  0.69333065  0.52288426  0.85117529    -0.11630
C3946       C  0.67853904  0.49445920  0.86391421     0.03040
C3947       C  0.64825517  0.48455955  0.84846912    -0.11050
H3948       H  0.65058035  0.53945708  0.78667298     0.08630
H3949       H  0.71296007  0.53397435  0.86413788     0.06160
H3950       H  0.63239334  0.46619526  0.85873783     0.06010
C3951       C  0.50994544  0.63399331  0.82090498     0.03050
C3952       C  0.54243544  0.64557486  0.82185609    -0.13100
C3953       C  0.55004424  0.67176008  0.84154989     0.00550
C3954       C  0.52605359  0.69588370  0.84368423    -0.11630
C3955       C  0.49438564  0.68551416  0.85429604     0.03040
C3956       C  0.48550628  0.65391274  0.83944665    -0.11050
H3957       H  0.56220734  0.62992628  0.81444061     0.08630
H3958       H  0.53451273  0.71894230  0.85257918     0.06160
H3959       H  0.46143600  0.64383519  0.84441832     0.06010
C3960       C  0.85408193  0.97742044  0.81679036     0.03050
C3961       C  0.84651533  0.01039247  0.81713485    -0.13100
C3962       C  0.83236217  0.02122760  0.84567076     0.00550
C3963       C  0.80288479  0.00568158  0.85057425    -0.11630
C3964       C  0.80526765  0.97250300  0.85604440     0.03040
C3965       C  0.83221934  0.95691986  0.83750612    -0.11050
H3966       H  0.86092977  0.02761682  0.80295984     0.08630
H3967       H  0.78343889  0.01939786  0.86211403     0.06160
H3968       H  0.83874376  0.93229051  0.84260615     0.06010
O3969       O  0.69311318  0.97351320  0.59464477    -0.75370
O3970       O  0.71713089  0.51953965  0.59740473    -0.54280
C3971       C  0.69742255  0.49696104  0.60850727     0.78360
O3972       O  0.80030007  0.90933721  0.49693407    -0.59970
O3973       O  0.77746392  0.89177451  0.95154142    -0.53000
C3974       C  0.79639079  0.88678368  0.97547966     0.70370
O3975       O  0.81034359  0.97482860  0.58137061    -0.74530
O3976       O  0.78812095  0.52221140  0.59455685    -0.55100
C3977       C  0.80645302  0.49716009  0.60131768     0.76370
O3978       O  0.68058144  0.90301678  0.51998978    -0.59680
O3979       O  0.70766774  0.89344303  0.96953492    -0.52800
C3980       C  0.69197474  0.88189965  0.99527257     0.72960
Zr3981     Zr  0.69900618  0.95764039  0.53755789     2.54710
O3982       O  0.70518569  0.91200710  0.57401967    -0.80240
O3983       O  0.64170459  0.96279516  0.55268485    -0.93660
Zr3984     Zr  0.79307568  0.95915750  0.52796859     2.64680
O3985       O  0.77827531  0.92008353  0.56968632    -0.98610
O3986       O  0.84923157  0.98066564  0.52647646    -0.80680
O3987       O  0.74804486  0.98185331  0.55449408    -0.84030
O3988       O  0.74426966  0.93596241  0.50898071    -2.18740
O3989       O  0.68448747  0.50878257  0.91914259    -0.67420
O3990       O  0.71001788  0.95525612  0.89861667    -0.51990
C3991       C  0.69649056  0.98246496  0.89052837     0.71350
O3992       O  0.77628827  0.58331412  0.99093060    -0.60330
O3993       O  0.78380608  0.58670931  0.53794990    -0.52310
C3994       C  0.78932320  0.59774960  0.50879122     0.73150
O3995       O  0.80932578  0.50331370  0.91536318    -0.71730
O3996       O  0.77377367  0.94129494  0.89860975    -0.50400
C3997       C  0.79146542  0.96592187  0.89031540     0.74530
O3998       O  0.69059861  0.58366403  0.98916249    -0.67060
O3999       O  0.71642917  0.58654955  0.53278290    -0.54250
C4000       C  0.69813484  0.59869449  0.51015313     0.72910
Zr4001     Zr  0.70119612  0.52633158  0.97319431     2.77540
O4002       O  0.72708604  0.56386952  0.93530188    -0.97800
O4003       O  0.64471188  0.52951590  0.97745535    -0.78630
Zr4004     Zr  0.79196744  0.52885240  0.96736833     2.70070
O4005       O  0.79023111  0.57048319  0.92616755    -0.79870
O4006       O  0.84696408  0.51983017  0.98332093    -0.98960
Zr4007     Zr  0.74937471  0.53651242  0.54786744     2.21500
Zr4008     Zr  0.74097586  0.94129474  0.94989697     2.11130
O4009       O  0.74607858  0.50334467  0.94578277    -2.47640
O4010       O  0.74679000  0.54762999  0.99633169    -0.79670
O4011       O  0.69428554  0.96789667  0.97671126    -0.71860
O4012       O  0.79485751  0.51328395  0.52036843    -2.32820
O4013       O  0.70096145  0.51381062  0.52436228    -2.29030
O4014       O  0.79029268  0.96496761  0.97129317    -0.73620
H4015       H  0.74387703  0.91315744  0.51351589     0.78380
H4016       H  0.81354241  0.52243908  0.53041570     0.79460
H4017       H  0.74630106  0.50841558  0.92301665     0.81690
H4018       H  0.68238580  0.52357621  0.53486161     0.79300
H4019       H  0.85340775  0.99357250  0.54596454     0.42330
H4020       H  0.85433690  0.50190710  0.96940792     0.41300
H4021       H  0.78121282  0.55961919  0.90716927     0.40980
H4022       H  0.71789427  0.55841850  0.91439947     0.38910
H4023       H  0.64025448  0.51473364  0.95964188     0.42050
H4024       H  0.64035480  0.97705505  0.57168399     0.36830
H4025       H  0.68377821  0.90943383  0.58555452     0.42950
H4026       H  0.76168786  0.93033252  0.58396336     0.39360
H4027       H  0.72050329  0.58608793  0.94030460     0.44280
H4028       H  0.63512233  0.94129091  0.56129948     0.43000
H4029       H  0.76697012  0.90179096  0.55956233     0.43140
H4030       H  0.85999548  0.53833622  0.97625249     0.43500
O4031       O  0.97518557  0.77317063  0.59132921    -0.75370
O4032       O  0.52831260  0.77887546  0.59796589    -0.54280
C4033       C  0.49832746  0.78316558  0.60838658     0.78360
O4034       O  0.90600959  0.67621679  0.51945310    -0.59970
O4035       O  0.89694625  0.70427335  0.97330956    -0.53000
C4036       C  0.88621963  0.68570386  0.99733407     0.70370
O4037       O  0.98595671  0.68210027  0.58723465    -0.74530
O4038       O  0.53391107  0.70689422  0.59764588    -0.55100
C4039       C  0.51021923  0.68677149  0.60589528     0.76370
O4040       O  0.91239269  0.79373814  0.49905312    -0.59680
O4041       O  0.89600288  0.77394866  0.95214978    -0.52800
C4042       C  0.89055931  0.79206081  0.97685125     0.72960
Zr4043     Zr  0.96028486  0.78575179  0.53430150     2.54710
O4044       O  0.91045713  0.79076339  0.56703938    -0.80240
O4045       O  0.97413041  0.83950471  0.55328505    -0.93660
Zr4046     Zr  0.96203628  0.69387720  0.53421095     2.64680
O4047       O  0.92106382  0.70167207  0.57706312    -0.98610
O4048       O  0.96934078  0.63723713  0.53784840    -0.80680
O4049       O  0.98444819  0.74055689  0.55697922    -0.84030
O4050       O  0.93841390  0.73908809  0.51002702    -2.18740
O4051       O  0.49630660  0.80611541  0.91929894    -0.67420
O4052       O  0.95143216  0.77363375  0.90299213    -0.51990
C4053       C  0.97267646  0.79615596  0.89574796     0.71350
O4054       O  0.58723351  0.68579315  0.98433782    -0.60330
O4055       O  0.58923177  0.70721569  0.53157464    -0.52310
C4056       C  0.60116115  0.68738618  0.50962727     0.73150
O4057       O  0.50983311  0.70626154  0.90726937    -0.71730
O4058       O  0.95555489  0.70557838  0.89985794    -0.50400
C4059       C  0.98474761  0.69942064  0.88824757     0.74530
O4060       O  0.57483900  0.79237753  0.00088481    -0.67060
O4061       O  0.59555588  0.77571124  0.54339071    -0.54250
C4062       C  0.59653433  0.78988997  0.51582310     0.72910
Zr4063     Zr  0.52459565  0.79443251  0.97027773     2.77540
O4064       O  0.56732919  0.79644577  0.92798895    -0.97800
O4065       O  0.52812324  0.85298705  0.96517837    -0.78630
Zr4066     Zr  0.53204023  0.70286600  0.96477766     2.70070
O4067       O  0.58064688  0.70370585  0.92906370    -0.79870
O4068       O  0.52282289  0.64710257  0.97648784    -0.98960
Zr4069     Zr  0.54260379  0.74374885  0.54822208     2.21500
Zr4070     Zr  0.94481101  0.73824626  0.95195849     2.11130
O4071       O  0.50487323  0.74837948  0.94556906    -2.47640
O4072       O  0.55030015  0.74901525  0.99217775    -0.79670
O4073       O  0.96712472  0.78475774  0.97845556    -0.71860
O4074       O  0.51997131  0.69660452  0.52354532    -2.32820
O4075       O  0.51665798  0.78990798  0.52089750    -2.29030
O4076       O  0.97277099  0.69283911  0.97496187    -0.73620
H4077       H  0.91552391  0.73863676  0.51603912     0.78380
H4078       H  0.53054357  0.67880941  0.53389798     0.79460
H4079       H  0.51141300  0.75411366  0.92381977     0.81690
H4080       H  0.52495692  0.80973048  0.52965050     0.79300
H4081       H  0.98228702  0.63389599  0.55719106     0.42330
H4082       H  0.50697477  0.63999983  0.96061012     0.41300
H4083       H  0.58932121  0.72599642  0.93036363     0.40980
H4084       H  0.56407574  0.77697004  0.91476550     0.38910
H4085       H  0.54520986  0.85744968  0.94826771     0.42050
H4086       H  0.99345225  0.84834679  0.54135531     0.36830
H4087       H  0.90732968  0.76973310  0.57810583     0.42950
H4088       H  0.93075339  0.71808299  0.59120871     0.39360
H4089       H  0.56194082  0.81463762  0.91371082     0.44280
H4090       H  0.98298515  0.83526643  0.57463116     0.43000
H4091       H  0.90270115  0.71287057  0.56721376     0.43140
H4092       H  0.54436668  0.63875034  0.96968301     0.43500
C4093       C  0.68259545  0.63286580  0.51595988     0.03050
C4094       C  0.69099425  0.64808119  0.54531249    -0.13100
C4095       C  0.66549287  0.66294252  0.56315910     0.00550
C4096       C  0.64969565  0.68530486  0.54431589    -0.11630
C4097       C  0.63567820  0.67354155  0.51601946     0.03040
C4098       C  0.65346042  0.64651447  0.50080238    -0.11050
H4099       H  0.71054566  0.63833144  0.55910568     0.08630
H4100       H  0.63967326  0.70605500  0.55653966     0.06160
H4101       H  0.64379600  0.63532274  0.47958527     0.06010
C4102       C  0.66931792  0.85275615  0.49030840     0.03050
C4103       C  0.66637722  0.84430367  0.45763133    -0.13100
C4104       C  0.63897668  0.83212963  0.95365952     0.00550
C4105       C  0.62306520  0.81059805  0.46594709    -0.11630
C4106       C  0.62507562  0.80974885  0.49983280     0.03040
C4107       C  0.64783709  0.83381544  0.51297965    -0.11050
H4108       H  0.68451015  0.85208952  0.94034872     0.08630
H4109       H  0.60706978  0.79444189  0.45397277     0.06160
H4110       H  0.64693705  0.83927866  0.53851037     0.06010
C4111       C  0.85264908  0.67150549  0.49320561     0.03050
C4112       C  0.83829081  0.67930815  0.46374728    -0.13100
C4113       C  0.82401780  0.65340358  0.44837158     0.00550
C4114       C  0.79798613  0.64130874  0.46786734    -0.11630
C4115       C  0.80533190  0.63104379  0.49968095     0.03040
C4116       C  0.83488761  0.64643816  0.51247510    -0.11050
H4117       H  0.84833031  0.69833078  0.44830486     0.08630
H4118       H  0.77801300  0.63014910  0.45545892     0.06160
H4119       H  0.84513257  0.63749375  0.53445068     0.06010
C4120       C  0.85915595  0.81159413  0.98415732     0.03050
C4121       C  0.85691217  0.81767954  0.01753953    -0.13100
C4122       C  0.85518554  0.84982802  0.02526840     0.00550
C4123       C  0.82417036  0.85759319  0.01658716    -0.11630
C4124       C  0.81702731  0.85653865  0.98339662     0.03040
C4125       C  0.83787430  0.83312160  0.96510762    -0.11050
H4126       H  0.86628239  0.80134163  0.03508196     0.08630
H4127       H  0.80757309  0.86748794  0.03464084     0.06160
H4128       H  0.83936556  0.83344002  0.93897680     0.06010
C4129       C  0.90221859  0.89672510  0.96039422    -0.20390
C4130       C  0.93400124  0.89270317  0.96885383    -0.06950
C4131       C  0.93636809  0.86943691  0.48907648     0.13910
C4132       C  0.91278559  0.85837247  0.51190804    -0.20440
C4133       C  0.88362903  0.86955180  0.01011302    -0.06960
C4134       C  0.87926086  0.89309450  0.98553658     0.13900
C4135       C  0.86193351  0.92314061  0.99265557    -0.23790
H4136       H  0.89794026  0.91419911  0.94170572     0.15190
H4137       H  0.91875525  0.83982132  0.52877146     0.15220
C4138       C  0.96765526  0.85280814  0.48389283    -0.23740
H4139       H  0.88034007  0.94253371  0.99558957     0.05430
H4140       H  0.84681554  0.92145482  0.52205065     0.08660
H4141       H  0.84682808  0.93027845  0.97216087     0.08660
H4142       H  0.98855918  0.86796695  0.49037776     0.08640
H4143       H  0.97404470  0.84308877  0.96125531     0.08640
H4144       H  0.96799165  0.83184239  0.49938397     0.05420
C4145       C  0.90529799  0.62270568  0.94570296    -0.20390
C4146       C  0.90152434  0.60201016  0.97285899    -0.06950
C4147       C  0.86685195  0.58833401  0.47504710     0.13910
C4148       C  0.84584274  0.59781008  0.45109083    -0.20440
C4149       C  0.84651278  0.62840192  0.94561449    -0.06960
C4150       C  0.87777227  0.63707661  0.93252146     0.13900
C4151       C  0.88213134  0.66103790  0.90535529    -0.23790
H4152       H  0.92913083  0.62838094  0.93564648     0.15190
H4153       H  0.82327479  0.58593081  0.44951413     0.15220
C4154       C  0.85413041  0.56824694  0.50363342    -0.23740
H4155       H  0.89558314  0.64973072  0.88472564     0.05430
H4156       H  0.90265518  0.68468234  0.41640919     0.08660
H4157       H  0.85829349  0.66929322  0.89677062     0.08660
H4158       H  0.85283577  0.58287412  0.52591779     0.08640
H4159       H  0.87594527  0.55832642  0.02469389     0.08640
H4160       H  0.83056777  0.55842064  0.49792973     0.05420
C4161       C  0.60055872  0.90237212  0.49816951    -0.20390
C4162       C  0.61346834  0.92931579  0.48252245    -0.06950
C4163       C  0.62499857  0.91709099  0.94264323     0.13910
C4164       C  0.62308554  0.88447730  0.93441112    -0.20440
C4165       C  0.61476994  0.86816793  0.45252053    -0.06960
C4166       C  0.59612654  0.87424294  0.48139415     0.13900
C4167       C  0.56860612  0.85405104  0.49360742    -0.23790
H4168       H  0.58966839  0.90436580  0.52232932     0.15190
H4169       H  0.62904488  0.87699611  0.90988237     0.15220
C4170       C  0.63140396  0.94117844  0.91730427    -0.23740
H4171       H  0.54597193  0.86778836  0.49205687     0.05430
H4172       H  0.57166996  0.84713308  0.51924095     0.08660
H4173       H  0.56633572  0.83356654  0.47771456     0.08660
H4174       H  0.65238777  0.95525495  0.92553727     0.08640
H4175       H  0.60945393  0.95623089  0.91541070     0.08640
H4176       H  0.63796734  0.93014073  0.89366813     0.05420
C4177       C  0.58233962  0.63663768  0.57652884    -0.20390
C4178       C  0.58647204  0.61226684  0.55300859    -0.06950
C4179       C  0.61695648  0.59760862  0.54937381     0.13910
C4180       C  0.64158659  0.60857673  0.56836807    -0.20440
C4181       C  0.64118769  0.63997752  0.58014852    -0.06960
C4182       C  0.61005384  0.65065874  0.59055242     0.13900
C4183       C  0.60698639  0.67641633  0.61573648    -0.23790
H4184       H  0.55834125  0.64576619  0.58238274     0.15190
H4185       H  0.66425970  0.59743739  0.56395417     0.15220
C4186       C  0.62652771  0.57450498  0.52249690    -0.23740
H4187       H  0.61892001  0.66824317  0.63795571     0.05430
H4188       H  0.57710276  0.68092899  0.12103698     0.08660
H4189       H  0.61876438  0.69921719  0.60729394     0.08660
H4190       H  0.61498961  0.55488156  0.02267804     0.08640
H4191       H  0.65011707  0.56345957  0.52648406     0.08640
H4192       H  0.62694663  0.58691998  0.49881568     0.05420
C4193       C  0.90193764  0.52712440  0.84537336    -0.20390
C4194       C  0.85584383  0.02039615  0.87326865    -0.06950
C4195       C  0.87307409  0.99121937  0.88134605     0.13910
C4196       C  0.90656232  0.99149857  0.87801088    -0.20440
C4197       C  0.92195748  0.01937278  0.88663851    -0.06960
C4198       C  0.91864821  0.50991173  0.86889211     0.13900
C4199       C  0.94954833  0.49287585  0.85978382    -0.23790
H4200       H  0.91292346  0.53295022  0.82268742     0.15190
H4201       H  0.91945106  0.96892700  0.88084923     0.15220
C4202       C  0.86181964  0.96555808  0.90568954    -0.23740
H4203       H  0.95609257  0.49851435  0.83556953     0.05430
H4204       H  0.93708942  0.08122362  0.90799798     0.08660
H4205       H  0.97121396  0.50320267  0.87101318     0.08660
H4206       H  0.85374121  0.94299482  0.89424469     0.08640
H4207       H  0.82399417  0.57778333  0.87317517     0.08640
H4208       H  0.88193155  0.95890149  0.92146837     0.05420
C4209       C  0.58103190  0.61550160  0.90263275    -0.20390
C4210       C  0.54760481  0.60567788  0.90756828    -0.06950
C4211       C  0.02141338  0.62339258  0.89568025     0.13910
C4212       C  0.03342399  0.65340596  0.89389841    -0.20440
C4213       C  0.56067090  0.66135267  0.87418392    -0.06960
C4214       C  0.58743429  0.64183968  0.88083194     0.13900
C4215       C  0.62105459  0.65194159  0.87001094    -0.23790
H4216       H  0.60001082  0.60562704  0.91656669     0.15190
H4217       H  0.03830699  0.66113418  0.91819210     0.15220
C4218       C  0.98489649  0.61768858  0.90028023    -0.23740
H4219       H  0.63660437  0.65415658  0.89132051     0.05430
H4220       H  0.62089391  0.67564562  0.85742646     0.08660
H4221       H  0.63124328  0.63418699  0.85284995     0.08660
H4222       H  0.97805290  0.60564041  0.92345323     0.08640
H4223       H  0.97644038  0.60245093  0.88052383     0.08640
H4224       H  0.97120766  0.64035131  0.90008178     0.05420
C4225       C  0.62156069  0.07838099  0.84989054    -0.20390
C4226       C  0.65838554  0.57084474  0.84651583    -0.06950
C4227       C  0.66503461  0.57833998  0.87861796     0.13910
C4228       C  0.64396540  0.56562003  0.90355622    -0.20440
C4229       C  0.61341898  0.55180158  0.89565016    -0.06960
C4230       C  0.59313692  0.07585356  0.87039569     0.13900
C4231       C  0.56607905  0.05820214  0.85378513    -0.23790
H4232       H  0.61902482  0.08400560  0.82454940     0.15190
H4233       H  0.65008408  0.56885171  0.92854090     0.15220
C4234       C  0.68955480  0.60461324  0.88438309    -0.23740
H4235       H  0.56289972  0.06903172  0.82951536     0.05430
H4236       H  0.55082643  0.56334065  0.86459841     0.08660
H4237       H  0.57256921  0.03277897  0.84996304     0.08660
H4238       H  0.71449433  0.59662540  0.87750181     0.08640
H4239       H  0.61394178  0.01132978  0.87158695     0.08640
H4240       H  0.68465466  0.62579031  0.86895032     0.05420
C4241       C  0.01700821  0.86760900  0.87963642    -0.20390
C4242       C  0.04135642  0.85328269  0.86038442    -0.06950
C4243       C  0.56798609  0.87963706  0.86267419     0.13910
C4244       C  0.56608975  0.91129322  0.87534472    -0.20440
C4245       C  0.04992362  0.91278369  0.89190917    -0.06960
C4246       C  0.01938300  0.89796402  0.89136808     0.13900
C4247       C  0.98785775  0.91203030  0.90421524    -0.23790
H4248       H  0.99403921  0.85677811  0.88482968     0.15190
H4249       H  0.58687234  0.92731560  0.87365470     0.15220
C4250       C  0.59851595  0.86832030  0.84544030    -0.23740
H4251       H  0.97686794  0.89479977  0.92187297     0.05430
H4252       H  0.97068914  0.91442811  0.88419638     0.08660
H4253       H  0.99035478  0.93581920  0.91549259     0.08660
H4254       H  0.59317274  0.86082939  0.82045747     0.08640
H4255       H  0.60831998  0.84739367  0.85862412     0.08640
H4256       H  0.61750068  0.88762589  0.84413327     0.05420
C4257       C  0.64077963  0.54729230  0.60310023    -0.20390
C4258       C  0.60756943  0.54179987  0.61347750    -0.06950
C4259       C  0.60013871  0.06149242  0.64044553     0.13910
C4260       C  0.62365033  0.07183862  0.66265717    -0.20440
C4261       C  0.65470516  0.56662295  0.65559660    -0.06960
C4262       C  0.66239716  0.56530441  0.62271705     0.13900
C4263       C  0.69429179  0.58091141  0.61123339    -0.23790
H4264       H  0.64915490  0.53985498  0.57935359     0.15190
H4265       H  0.61585267  0.08111128  0.68604317     0.15220
C4266       C  0.56709632  0.07514503  0.64298418    -0.23740
H4267       H  0.69166624  0.60746954  0.61146327     0.05430
H4268       H  0.69940587  0.07423521  0.58435852     0.08660
H4269       H  0.71474687  0.57631730  0.62707549     0.08660
H4270       H  0.56121893  0.08661222  0.61961936     0.08880
H4271       H  0.56287750  0.59025041  0.66318463     0.08640
H4272       H  0.54957241  0.05586539  0.64925737     0.05420
C4273       C  0.49556480  0.87982649  0.62863324    -0.20390
C4274       C  0.46236049  0.87074722  0.62456264    -0.06950
C4275       C  0.94602702  0.88416859  0.59461841     0.13910
C4276       C  0.96417919  0.90276497  0.57199437    -0.20440
C4277       C  0.49828619  0.90855694  0.58006042    -0.06960
C4278       C  0.51380931  0.89714228  0.60653189     0.13900
C4279       C  0.55075785  0.89930190  0.60934535    -0.23790
H4280       H  0.51054469  0.87160035  0.64660524     0.15190
H4281       H  0.95340454  0.90878319  0.54929775     0.15220
C4282       C  0.91240785  0.87277349  0.58784600    -0.23740
H4283       H  0.55919627  0.88913816  0.63238573     0.05430
H4284       H  0.55945471  0.92464399  0.60746146     0.08660
H4285       H  0.56270100  0.88548319  0.58942057     0.08660
H4286       H  0.89694598  0.87539044  0.60989789     0.08640
H4287       H  0.91244557  0.84695806  0.58215054     0.08640
H4288       H  0.90216630  0.88644503  0.56781229     0.05420
C4289       C  0.87730117  0.94074037  0.58584432    -0.20390
C4290       C  0.90114143  0.44821305  0.60596861    -0.06950
C4291       C  0.90925845  0.43632473  0.63719394     0.13910
C4292       C  0.88551157  0.41960497  0.65667674    -0.20440
C4293       C  0.85297569  0.41912490  0.64733080    -0.06960
C4294       C  0.85471614  0.92327597  0.60608343     0.13900
C4295       C  0.83414015  0.89652652  0.59366589    -0.23790
H4296       H  0.87399214  0.94159115  0.56062627     0.15190
H4297       H  0.89070060  0.41305485  0.68130351     0.15220
C4298       C  0.94194655  0.44117879  0.65094320    -0.23740
H4299       H  0.84529770  0.87285763  0.59812205     0.05430
H4300       H  0.82970198  0.39058647  0.57503840     0.08660
H4301       H  0.81039480  0.89549521  0.60715640     0.08660
H4302       H  0.96116247  0.43282774  0.63425963     0.08640
H4303       H  0.95051084  0.92342937  0.66114762     0.08640
H4304       H  0.94593422  0.46697451  0.65497644     0.05420
C4305       C  0.43995464  0.59875682  0.66268309    -0.20390
C4306       C  0.43160668  0.63084709  0.65960187    -0.06950
C4307       C  0.91203747  0.63847085  0.63141803     0.13910
C4308       C  0.91211291  0.61512052  0.60561682    -0.20440
C4309       C  0.43307284  0.58514495  0.60937227    -0.06960
C4310       C  0.45396464  0.58561917  0.63489742     0.13900
C4311       C  0.48882879  0.59433616  0.62442341    -0.23790
H4312       H  0.41820075  0.58518488  0.66967795     0.15190
H4313       H  0.89776246  0.61877047  0.58446493     0.15220
C4314       C  0.88844532  0.66579344  0.63202507    -0.23740
H4315       H  0.50531400  0.59142428  0.64368610     0.05430
H4316       H  0.48984721  0.61899448  0.61444452     0.08660
H4317       H  0.49967588  0.57892964  0.60535549     0.08660
H4318       H  0.90089735  0.68920158  0.63560242     0.08640
H4319       H  0.87059582  0.66205654  0.65248825     0.08640
H4320       H  0.87477092  0.66681155  0.60936125     0.05420
loop_ 
_geom_bond_atom_site_label_1 
_geom_bond_atom_site_label_2 
_geom_bond_distance 
_geom_bond_site_symmetry_2 
_ccdc_geom_bond_type 
O1           C12   1.259       .  A
O1         Zr577   2.378       .  S
O2           C13   1.251       .  A
O2        Zr2196   2.319   1_554  S
O3           C14   1.300       .  A
O3        Zr1089   2.457       .  S
O4           C15   1.307       .  A
O4        Zr2169   2.509       .  S
O5           C15   1.289       .  A
O5          Zr39   2.473       .  S
O6           C14   1.318       .  A
O6         Zr578   2.555       .  S
O7           C13   1.279       .  A
O7        Zr1089   2.442       .  S
O8           C12   1.306       .  A
O8           Zr9   2.530   1_545  S
Zr9        O1083   2.448       .  S
Zr9        O2164   2.573   1_565  S
Zr9        O1087   2.437       .  S
Zr9          O11   2.288   1_565  S
Zr9        O3250   2.361       .  S
Zr9        O2179   2.315   1_565  S
Zr9        O1097   2.358       .  S
O10         Zr36   2.371   1_554  S
O10       Zr3249   2.362       .  S
O10       Zr1119   2.368       .  S
O11        Zr577   2.293       .  S
O11       Zr1658   2.282   1_545  S
C12        C2689   1.459       .  S
C13        C2657   1.408       .  S
C14        C1590   1.542       .  S
C15         C478   1.530       .  S
H16          O17   0.955       .  S
O17       Zr1089   2.342       .  S
O17       Zr2196   2.350   1_554  S
O17        Zr578   2.294       .  S
H18          O19   0.961       .  S
O19         Zr39   2.381       .  S
O19       Zr2169   2.344       .  S
O19       Zr2737   2.327       .  S
O20          C43   1.270       .  A
O20        Zr576   2.364       .  S
O21          C44   1.271       .  A
O21       Zr2197   2.453       .  S
O22          C45   1.286       .  A
O22         Zr38   2.399       .  S
O23          C46   1.282       .  A
O23       Zr1119   2.432   1_556  S
O24          C47   1.286       .  A
O24         Zr39   2.473       .  S
O25          C48   1.307       .  A
O25       Zr1118   2.498   1_545  S
O26          C49   1.289       .  A
O26       Zr2200   2.416       .  S
O27          C50   1.274       .  A
O27       Zr1120   2.385       .  S
O28          C49   1.283       .  A
O28         Zr38   2.399       .  S
O29          C50   1.301       .  A
O29        Zr579   2.540       .  S
O30         C585   1.281       .  A
O30       Zr2196   2.401       .  S
O31          C48   1.267       .  A
O31         Zr37   2.321       .  S
O32         C587   1.269       .  A
O32       Zr2197   2.386       .  S
O33          C46   1.273       .  A
O33         Zr36   2.336       .  S
O34          C43   1.285       .  A
O34         Zr40   2.428       .  S
O35          C44   1.277       .  A
O35       Zr1120   2.359       .  S
Zr36       O2162   2.316   1_556  S
Zr36        O560   2.373       .  S
Zr36       O2190   2.411   1_455  S
Zr36       O2177   2.347   1_456  S
Zr36       O2742   2.301   1_455  S
Zr36        O594   2.283       .  S
Zr37        O541   2.429       .  S
Zr37       O2181   2.450       .  S
Zr37       O2192   2.409       .  S
Zr37         O52   2.349       .  S
Zr37        O551   2.305       .  S
Zr37       O2719   2.339       .  S
Zr37       O2201   2.251       .  S
Zr38        O546   2.533       .  S
Zr38       O1105   2.485       .  S
Zr38         O42   2.372       .  S
Zr38       O1631   2.277       .  S
Zr38        O557   2.298       .  S
Zr38       O1132   2.297       .  S
Zr39       O1103   2.481   1_544  S
Zr39        O569   2.536   1_554  S
Zr39       O1090   2.333   1_545  S
Zr39        O581   2.321   1_554  S
Zr39       O1674   2.369   1_544  S
Zr40       O2186   2.434   1_455  S
Zr40       O1107   2.361       .  S
Zr40       O1115   2.292       .  S
Zr40         O54   2.276       .  S
Zr40       O1121   2.301       .  S
Zr40       O2202   2.263   1_455  S
Zr40       O3292   2.280   1_455  S
O41       Zr2197   2.289       .  S
O41        Zr579   2.254       .  S
O41       Zr1120   2.287       .  S
O42       Zr2736   2.312       .  S
O42       Zr2200   2.275       .  S
C43        C2625   1.451       .  S
C44         C430   1.440       .  S
C45         O570   1.280       .  A
C45         C350   1.462       .  S
C46         C382   1.445       .  S
C47         O572   1.275       .  A
C47         C398   1.487       .  S
C48         C366   1.443       .  S
C49         C417   1.444       .  S
C50         C449   1.492       .  S
H51          O52   0.963       .  S
O52       Zr1118   2.359   1_545  S
O52       Zr3280   2.312       .  S
H53          O54   0.961       .  S
O54        Zr576   2.312       .  S
O54       Zr1659   2.380       .  S
C55          C66   1.593       .  S
C55          C56   1.420   1_455  A
C55          C60   1.482       .  A
C56          C57   1.420       .  A
C56          H61   1.085       .  S
C57         C526   1.527       .  S
C57          C58   1.390       .  A
C58          C59   1.410   1_655  A
C58          H62   1.080       .  S
C59         C259   1.564       .  S
C59          C60   1.478       .  A
C60          H63   1.079       .  S
O64        C2226   1.298       .  A
O64         Zr76   2.487       .  S
O65          C66   1.306       .  A
O65        Zr102   2.565       .  S
C66        O2224   1.292   1_455  A
O67        C1149   1.289       .  A
O67         Zr79   2.539   1_565  S
O68          C69   1.280       .  A
O68        Zr103   2.466       .  S
C69        O1147   1.297       .  A
C69         C180   1.539       .  S
O70        C2232   1.292       .  A
O70         Zr79   2.512       .  S
O71          C72   1.322       .  A
O71        Zr102   2.564       .  S
C72        O2230   1.297   1_455  A
C72         C171   1.581       .  S
O73        C1155   1.287   1_545  A
O73         Zr76   2.452       .  S
O74          C75   1.326       .  A
O74        Zr103   2.582       .  S
C75        O1153   1.285       .  A
C75        C1206   1.539       .  S
Zr76         O82   2.327       .  S
Zr76         O83   2.340       .  S
Zr76       O1186   2.408   1_545  S
Zr76       O2268   2.374       .  S
Zr76         O77   2.419       .  S
Zr76         O78   2.387       .  S
O77         H120   0.990       .  S
O78         H119   0.985       .  S
O78         H123   0.985       .  S
Zr79         O83   2.347       .  S
Zr79         O82   2.336       .  S
Zr79       O2267   2.384       .  S
Zr79       O1189   2.451   1_545  S
Zr79         O80   2.455       .  S
Zr79         O81   2.478       .  S
O80         H121   0.988       .  S
O80         H124   0.990       .  S
O81         H114   0.994       .  S
O82       Zr2262   2.365       .  S
O83       Zr1183   2.431   1_545  S
O83         H110   0.963       .  S
O84        C2246   1.306   1_455  A
O84         Zr96   2.559       .  S
O85          C86   1.313       .  A
O85        Zr103   2.526       .  S
C86        O2244   1.304       .  A
C86        C2295   1.588       .  S
O87        C1169   1.290       .  A
O87         Zr99   2.482       .  S
O88          C89   1.322       .  A
O88        Zr102   2.564       .  S
C89        O1167   1.298   1_545  A
C89         C162   1.571       .  S
O90        C2252   1.303   1_455  A
O90         Zr99   2.489       .  S
O91          C92   1.299       .  A
O91        Zr103   2.504       .  S
C92        O2250   1.304       .  A
C92         C153   1.534       .  S
O93        C1175   1.287       .  A
O93         Zr96   2.450       .  S
O94          C95   1.306   1_545  A
O94        Zr102   2.480       .  S
C95        O1173   1.290       .  A
C95         C144   1.514   1_565  S
Zr96        O104   2.356       .  S
Zr96        O105   2.381       .  S
Zr96       O1188   2.434       .  S
Zr96       O2266   2.371   1_455  S
Zr96         O97   2.437       .  S
Zr96         O98   2.426       .  S
O97         H117   0.990       .  S
O97         H122   0.989       .  S
O98         H118   0.990       .  S
Zr99        O105   2.341       .  S
Zr99        O104   2.352       .  S
Zr99       O2269   2.390   1_455  S
Zr99       O1187   2.402       .  S
Zr99        O100   2.422       .  S
Zr99        O101   2.359       .  S
O100        H116   0.990       .  S
O101        H115   0.986       .  S
O101        H125   0.989       .  S
Zr102       O107   2.376       .  S
Zr102       O108   2.422       .  S
Zr102      O2242   2.381   1_455  S
Zr102      O1185   2.407   1_545  S
Zr103       O106   2.388       .  S
Zr103       O109   2.434       .  S
Zr103      O1163   2.413       .  S
Zr103      O2264   2.404       .  S
O104      Zr2263   2.404   1_455  S
O104        H112   0.964       .  S
O105      Zr1182   2.411       .  S
O106      Zr1156   2.407       .  S
O106      Zr2256   2.384       .  S
O107      Zr2239   2.401   1_455  S
O107      Zr1179   2.380   1_545  S
O107        H111   0.961       .  S
O108      Zr2236   2.378   1_455  S
O108      Zr1176   2.422   1_545  S
O108        H113   0.961       .  S
O109      Zr1159   2.415       .  S
O109      Zr2259   2.391       .  S
C126       C1155   1.545       .  S
C126        C127   1.401       .  A
C126        C131   1.477   1_565  A
C127        C128   1.384       .  A
C127        H132   1.083       .  S
C128        C513   1.524       .  S
C128        C129   1.412       .  A
C129        C130   1.423       .  A
C129        H133   1.083       .  S
C130        C197   1.560       .  S
C130        C131   1.471   1_565  A
C131        H134   1.082       .  S
C135       C2246   1.597       .  S
C135        C136   1.400       .  A
C135        C140   1.532   1_655  A
C136        C137   1.368       .  A
C136        H141   1.082       .  S
C137        C494   1.515       .  S
C137        C138   1.379       .  A
C138        C139   1.410       .  A
C138        H142   1.077       .  S
C139        C253   1.608       .  S
C139        C140   1.512   1_655  A
C140        H143   1.082       .  S
C144        C145   1.413       .  A
C144        C149   1.457   1_545  A
C145        C146   1.385       .  A
C145        H150   1.083       .  S
C146        C481   1.528       .  S
C146        C147   1.410       .  A
C147        C148   1.415   1_545  A
C147        H151   1.080       .  S
C148        C191   1.537       .  S
C148        C149   1.455       .  A
C149        H152   1.082       .  S
C153        C154   1.412       .  A
C153        C158   1.466       .  A
C154        C155   1.388       .  A
C154        H159   1.085       .  S
C155        C462   1.508       .  S
C155        C156   1.393       .  A
C156        C157   1.417       .  A
C156        H160   1.083       .  S
C157        C273   1.537       .  S
C157        C158   1.471       .  A
C158        H161   1.082       .  S
C162        C163   1.405       .  A
C162        C167   1.470   1_545  A
C163        C164   1.406       .  A
C163        H168   1.082       .  S
C164        C446   1.525       .  S
C164        C165   1.405       .  A
C165        C166   1.413   1_545  A
C165        H169   1.081       .  S
C166       C1291   1.569       .  S
C166        C167   1.476       .  A
C167        H170   1.076       .  S
C171        C172   1.420       .  A
C171        C176   1.484   1_455  A
C172        C173   1.406       .  A
C172        H177   1.082       .  S
C173        C433   1.503       .  S
C173        C174   1.401       .  A
C174        C175   1.416   1_455  A
C174        H178   1.085       .  S
C175       C2439   1.579       .  S
C175        C176   1.484       .  A
C176        H179   1.081       .  S
C180        C181   1.414       .  A
C180        C185   1.467       .  A
C181        C182   1.401       .  A
C181        H186   1.083       .  S
C182        C414   1.506       .  S
C182        C183   1.387       .  A
C183        C184   1.417       .  A
C183        H187   1.081       .  S
C184        C217   1.537       .  S
C184        C185   1.463       .  A
C185        H188   1.082       .  S
O189       C1271   1.289       .  A
O189       Zr201   2.481       .  S
O190        C191   1.304   1_545  A
O190       Zr227   2.503       .  S
C191       O1269   1.288       .  A
O192        C734   1.294       .  A
O192       Zr204   2.490   1_556  S
O193        C194   1.297       .  A
O193       Zr228   2.549       .  S
C194        O732   1.290       .  A
C194        C344   1.567       .  S
O195       C1277   1.288       .  A
O195       Zr204   2.425       .  S
O196        C197   1.329   1_545  A
O196       Zr227   2.628       .  S
C197       O1275   1.288       .  A
O198        C740   1.297   1_554  A
O198       Zr201   2.513       .  S
O199        C200   1.314       .  A
O199       Zr228   2.525       .  S
C200        O738   1.293       .  A
C200        C862   1.546       .  S
Zr201       O207   2.370       .  S
Zr201       O208   2.354       .  S
Zr201       O771   2.430   1_554  S
Zr201      O1313   2.412       .  S
Zr201       O202   2.443       .  S
Zr201       O203   2.422       .  S
O202        H245   0.989       .  S
O203        H244   0.989       .  S
O203        H248   0.990       .  S
Zr204       O208   2.351       .  S
Zr204       O207   2.345       .  S
Zr204      O1312   2.356       .  S
Zr204       O774   2.358   1_554  S
Zr204       O205   2.416       .  S
Zr204       O206   2.467       .  S
O205        H246   0.988       .  S
O205        H249   0.987       .  S
O206        H239   0.989       .  S
O207      Zr1307   2.390       .  S
O208       Zr768   2.405   1_554  S
O208        H235   0.961       .  S
O209       C1291   1.290   1_545  A
O209       Zr221   2.452       .  S
O210        C211   1.309       .  A
O210       Zr228   2.569       .  S
C211       O1289   1.305       .  A
C211       C1246   1.586       .  S
O212        C754   1.304       .  A
O212       Zr224   2.537       .  S
O213        C214   1.301       .  A
O213       Zr227   2.530       .  S
C214        O752   1.306   1_554  A
C214        C335   1.567       .  S
O215       C1297   1.300       .  A
O215       Zr224   2.485   1_565  S
O216        C217   1.307       .  A
O216       Zr228   2.544       .  S
C217       O1295   1.294       .  A
O218        C760   1.296       .  A
O218       Zr221   2.499       .  S
O219        C220   1.325       .  A
O219       Zr227   2.593       .  S
C220        O758   1.303   1_554  A
C220        C313   1.598       .  S
Zr221       O229   2.343       .  S
Zr221       O230   2.301       .  S
Zr221       O773   2.401       .  S
Zr221      O1311   2.424   1_545  S
Zr221       O222   2.430       .  S
Zr221       O223   2.323       .  S
O222        H242   0.981       .  S
O222        H247   0.988       .  S
O223        H243   0.985       .  S
Zr224       O230   2.334       .  S
Zr224       O229   2.360       .  S
Zr224      O1314   2.369   1_545  S
Zr224       O772   2.363       .  S
Zr224       O225   2.425       .  S
Zr224       O226   2.425       .  S
O225        H241   0.989       .  S
O226        H240   0.988   1_545  S
O226        H250   0.976       .  S
Zr227       O232   2.370       .  S
Zr227       O233   2.435       .  S
Zr227      O1287   2.384   1_545  S
Zr227       O770   2.383   1_554  S
Zr228       O231   2.467       .  S
Zr228       O234   2.422       .  S
Zr228       O748   2.418       .  S
Zr228      O1309   2.400       .  S
O229      Zr1308   2.388   1_545  S
O229        H237   0.964       .  S
O230       Zr767   2.371       .  S
O231       Zr741   2.438       .  S
O231      Zr1301   2.429       .  S
O232      Zr1284   2.352   1_545  S
O232       Zr764   2.372   1_554  S
O232        H236   0.960       .  S
O233      Zr1281   2.413   1_545  S
O233       Zr761   2.425   1_554  S
O233        H238   0.964       .  S
O234       Zr744   2.372       .  S
O234      Zr1304   2.377       .  S
O251       C2413   1.301       .  A
O251       Zr263   2.513       .  S
O252        C253   1.313   1_455  A
O252       Zr289   2.609       .  S
C253       O2411   1.301       .  A
O254        C796   1.296   1_554  A
O254       Zr266   2.510       .  S
O255        C256   1.317       .  A
O255       Zr290   2.547       .  S
C256        O794   1.294       .  A
C256        C871   1.556       .  S
O257       C2419   1.298       .  A
O257       Zr266   2.484       .  S
O258        C259   1.311       .  A
O258       Zr289   2.567       .  S
C259       O2417   1.301   1_455  A
O260        C802   1.301       .  A
O260       Zr263   2.512   1_556  S
O261        C262   1.290       .  A
O261       Zr290   2.507       .  S
C262        O800   1.303       .  A
C262        C340   1.559       .  S
Zr263       O269   2.340       .  S
Zr263       O270   2.368       .  S
Zr263       O833   2.405   1_554  S
Zr263      O2455   2.391       .  S
Zr263       O264   2.429       .  S
Zr263       O265   2.437       .  S
O264        H307   0.988       .  S
O265        H306   0.986       .  S
O265        H310   0.983       .  S
Zr266       O270   2.357       .  S
Zr266       O269   2.351       .  S
Zr266      O2454   2.403       .  S
Zr266       O836   2.430   1_554  S
Zr266       O267   2.428       .  S
Zr266       O268   2.379       .  S
O267        H308   0.989       .  S
O267        H311   0.989       .  S
O268        H301   0.986       .  S
O269      Zr2449   2.406       .  S
O270       Zr830   2.444   1_554  S
O270        H297   0.964       .  S
O271       C2433   1.296   1_455  A
O271       Zr283   2.468       .  S
O272        C273   1.296       .  A
O272       Zr290   2.500       .  S
C273       O2431   1.302       .  A
O274        C816   1.306       .  A
O274       Zr286   2.535       .  S
O275        C276   1.321       .  A
O275       Zr289   2.562       .  S
C276        O814   1.302   1_554  A
C276        C317   1.583       .  S
O277       C2439   1.307   1_455  A
O277       Zr286   2.510       .  S
O278        C279   1.301       .  A
O278       Zr290   2.574       .  S
C279       O2437   1.295       .  A
C279       C2335   1.616       .  S
O280        C822   1.283       .  A
O280       Zr283   2.441       .  S
O281        C282   1.292       .  A
O281       Zr289   2.529       .  S
C282        O820   1.293   1_554  A
C282        C326   1.562   1_554  S
Zr283       O291   2.335       .  S
Zr283       O292   2.352       .  S
Zr283       O835   2.413       .  S
Zr283      O2453   2.344   1_455  S
Zr283       O284   2.438       .  S
Zr283       O285   2.444       .  S
O284        H304   0.989       .  S
O284        H309   0.989       .  S
O285        H305   0.989       .  S
Zr286       O292   2.348       .  S
Zr286       O291   2.360       .  S
Zr286      O2456   2.389   1_455  S
Zr286       O834   2.401       .  S
Zr286       O287   2.416       .  S
Zr286       O288   2.390   1_455  S
O287        H303   0.990       .  S
O288        H302   0.983       .  S
O288        H312   0.983   1_655  S
Zr289       O294   2.401       .  S
Zr289       O295   2.471       .  S
Zr289      O2429   2.398   1_455  S
Zr289       O832   2.439   1_554  S
Zr290       O293   2.416       .  S
Zr290       O296   2.420       .  S
Zr290       O810   2.432       .  S
Zr290      O2451   2.436       .  S
O291      Zr2450   2.413   1_455  S
O291        H299   0.963       .  S
O292       Zr829   2.430       .  S
O293       Zr803   2.391       .  S
O293      Zr2443   2.362       .  S
O294      Zr2426   2.398   1_455  S
O294       Zr826   2.411   1_554  S
O294        H298   0.964       .  S
O295      Zr2423   2.389   1_455  S
O295       Zr823   2.401   1_554  S
O295        H300   0.963       .  S
O296       Zr806   2.424       .  S
O296      Zr2446   2.413       .  S
C313        C314   1.418       .  A
C313        C318   1.496   1_554  A
C314        C315   1.412       .  A
C314        H319   1.082       .  S
C315        C401   1.520       .  S
C315        C316   1.386       .  A
C316        C317   1.402       .  A
C316        H320   1.082       .  S
C317        C318   1.488   1_554  A
C318        H321   1.082       .  S
C322        C740   1.564       .  S
C322        C323   1.408       .  A
C322        C327   1.493   1_556  A
C323        C864   1.387       .  A
C323        H868   1.083       .  S
C324        C925   1.520       .  S
C324        C863   1.383       .  A
C324        C865   1.380       .  A
C325        C326   1.412       .  A
C325        C864   1.388       .  A
C325        H329   1.078       .  S
C326        C327   1.487   1_556  A
C327        H330   1.081       .  S
H328        C863   1.083       .  S
C331        C796   1.560       .  S
C331        C332   1.406       .  A
C331        C336   1.482   1_556  A
C332        C333   1.388       .  A
C332        H337   1.080       .  S
C333        C909   1.533       .  S
C333        C334   1.406       .  A
C334        C335   1.426   1_556  A
C334        H338   1.083       .  S
C335        C336   1.486       .  A
C336        H339   1.081       .  S
C340        C341   1.410       .  A
C340        C345   1.499       .  A
C341        C342   1.380       .  A
C341        H346   1.079       .  S
C342        C353   1.534       .  S
C342        C343   1.385       .  A
C343        C344   1.419       .  A
C343        H347   1.081       .  S
C344        C345   1.499       .  A
C345        H348   1.081       .  S
C349        C350   1.383       .  A
C349        C354   1.393       .  A
C349        H356   1.086       .  S
C350        C891   1.393       .  A
C351        C352   1.402   1_556  A
C351        C890   1.391       .  A
C351        C358   1.478       .  S
C352        C893   1.400       .  A
C352        H357   1.072       .  S
C353        C354   1.411       .  A
C353        C892   1.398       .  A
C354        C355   1.460       .  S
C355        H359   1.105       .  S
C355        H361   1.111       .  S
C355        H900   1.104       .  S
C358        H362   1.099       .  S
C358        H364   1.078       .  S
C358        H903   1.110       .  S
H360        C895   1.099       .  S
H363        C898   1.110       .  S
C365        C366   1.414       .  A
C365        C370   1.412       .  A
C365        H372   1.078       .  S
C366        C907   1.374       .  A
C367        C368   1.399       .  A
C367        C906   1.386       .  A
C367        C374   1.507   1_556  S
C368        C909   1.402       .  A
C368        H373   1.048       .  S
C369        C873   1.524       .  S
C369        C370   1.421       .  A
C369        C908   1.410       .  A
C370        C371   1.501       .  S
C371        H375   1.106       .  S
C371        H377   1.111       .  S
C371        H916   1.110       .  S
C374        H378   1.108       .  S
C374        H380   1.076   1_554  S
C374        H919   1.091       .  S
H376        C911   1.105       .  S
H379        C914   1.102       .  S
C381        C382   1.387       .  A
C381        C386   1.379       .  A
C381        H388   1.088   1_556  S
C382        C923   1.421       .  A
C383        C384   1.405       .  A
C383        C922   1.409       .  A
C383        C390   1.466       .  S
C384        C925   1.401       .  A
C384        H389   1.084       .  S
C385        C864   1.510       .  S
C385        C386   1.420       .  A
C385        C924   1.396       .  A
C386        C387   1.478       .  S
C387        H391   1.101   1_556  S
C387        H392   1.109   1_556  S
C387        H393   1.085       .  S
C390        H394   1.107       .  S
C390        H395   1.101       .  S
C390        H396   1.110       .  S
C397        C398   1.420       .  A
C397        C402   1.431       .  A
C397        H404   1.075       .  S
C398        C399   1.409       .  A
C399        C400   1.395       .  A
C399        C406   1.489       .  S
C400        C401   1.386       .  A
C400        H405   1.078       .  S
C401        C402   1.421       .  A
C402        C403   1.498       .  S
C403        H407   1.111       .  S
C403        H409   1.107       .  S
C403        H948   1.110       .  S
C406        H411   1.090       .  S
C406        H412   1.097       .  S
C406        H950   1.067       .  S
H408        C943   1.104       .  S
H410        C946   1.063       .  S
C413        C418   1.415       .  A
C413       C1494   1.392       .  A
C413        H420   1.055       .  S
C414        C415   1.407       .  A
C414       C1493   1.386       .  A
C415        C416   1.425       .  A
C415        C422   1.498       .  S
C416        C417   1.421       .  A
C416        H421   1.064       .  S
C417       C1498   1.378       .  A
C418       C1497   1.389       .  A
C418        C419   1.492   1_545  S
C419        H423   1.110       .  S
C419        H425   1.043   1_565  S
C419       H1504   1.100   1_565  S
C422        H426   1.102       .  S
C422        H428   1.108       .  S
C422       H1507   1.110       .  S
H424       C1499   1.110       .  S
H427       C1502   1.101       .  S
C429        C430   1.415       .  A
C429        C434   1.428       .  A
C429        H436   1.083       .  S
C430       C2591   1.389       .  A
C431        C432   1.335       .  A
C431       C2590   1.373       .  A
C431        C438   1.521       .  S
C432       C2593   1.373       .  A
C432        H437   1.083       .  S
C433        C434   1.420       .  A
C433       C2592   1.392       .  A
C434        C435   1.499       .  S
C435        H439   1.107       .  S
C435        H440   1.111       .  S
C435        H441   1.109       .  S
C438        H442   1.105       .  S
C438        H443   1.103       .  S
C438        H444   1.102       .  S
C445        C450   1.425       .  A
C445       C1526   1.425       .  A
C445        H452   1.082       .  S
C446        C447   1.411       .  A
C446       C1525   1.399       .  A
C447        C448   1.420       .  A
C447        C454   1.499       .  S
C448        C449   1.413       .  A
C448        H453   1.083       .  S
C449       C1530   1.436       .  A
C450       C1529   1.460       .  A
C450        C451   1.511       .  S
C451        H455   1.110       .  S
C451        H457   1.104       .  S
C451       H1536   1.098       .  S
C454        H458   1.110       .  S
C454        H460   1.110       .  S
C454       H1539   1.109       .  S
H456       C1531   1.094       .  S
H459       C1534   1.100       .  S
C461        C462   1.410       .  A
C461        C466   1.362       .  A
C461        H468   1.052       .  S
C462       C2623   1.413       .  A
C463        C464   1.419       .  A
C463       C2622   1.414       .  A
C463        C470   1.502       .  S
C464       C2625   1.409       .  A
C464        H469   1.079       .  S
C465       C2203   1.445       .  S
C465        C466   1.382       .  A
C465       C2624   1.409       .  A
C466        C467   1.513       .  S
C467        H471   1.111       .  S
C467        H472   1.107       .  S
C467        H473   1.101       .  S
C470        H474   1.110       .  S
C470        H475   1.110       .  S
C470        H476   1.111       .  S
C477        C478   1.420       .  A
C477        C482   1.421       .  A
C477        H484   1.075       .  S
C478       C1559   1.417       .  A
C479        C480   1.418       .  A
C479       C1558   1.414       .  A
C479        C486   1.476       .  S
C480       C1561   1.410       .  A
C480        H485   1.083       .  S
C481        C482   1.389       .  A
C481       C1560   1.412       .  A
C482        C483   1.510       .  S
C483        H487   1.093       .  S
C483        H489   1.108       .  S
C483       H1568   1.102       .  S
C486        H490   1.110       .  S
C486        H492   1.095       .  S
C486       H1571   1.099       .  S
H488       C1563   1.096       .  S
H491       C1566   1.100       .  S
C493        C494   1.427       .  A
C493        C498   1.357   1_655  A
C493        H500   1.038   1_655  S
C494       C2655   1.397       .  A
C495        C496   1.399       .  A
C495       C2654   1.394       .  A
C495        C502   1.492       .  S
C496       C2657   1.412       .  A
C496        H501   1.081       .  S
C497       C2173   1.417   1_655  S
C497        C498   1.370   1_655  A
C497       C2656   1.416       .  A
C498        C499   1.529       .  S
C499        H503   1.109       .  S
C499        H504   1.108       .  S
C499        H505   1.111       .  S
C502        H506   1.101       .  S
C502        H507   1.099       .  S
C502        H508   1.102       .  S
C509        C514   1.417       .  A
C509       C1590   1.412       .  A
C509        H516   1.050       .  S
C510       C1094   1.529       .  S
C510        C511   1.430       .  A
C510       C1589   1.409       .  A
C511        C512   1.419       .  A
C511        C518   1.487       .  S
C512        C513   1.406       .  A
C512        H517   1.082       .  S
C513       C1594   1.384       .  A
C514       C1593   1.383       .  A
C514        C515   1.494       .  S
C515        H519   1.108       .  S
C515        H521   1.107       .  S
C515       H1600   1.099       .  S
C518        H522   1.092       .  S
C518        H524   1.095       .  S
C518       H1603   1.106       .  S
H520       C1595   1.102       .  S
H523       C1598   1.108       .  S
C525        C526   1.379       .  A
C525        C530   1.379       .  A
C525        H532   1.043       .  S
C526       C2687   1.428       .  A
C527        C528   1.446       .  A
C527       C2686   1.433       .  A
C527        C534   1.500       .  S
C528       C2689   1.434       .  A
C528        H533   1.083       .  S
C529       C2172   1.471       .  S
C529        C530   1.378       .  A
C529       C2688   1.424       .  A
C530        C531   1.521       .  S
C531        H535   1.069   1_655  S
C531        H536   1.104       .  S
C531        H537   1.103   1_655  S
C534        H538   1.105       .  S
C534        H539   1.110       .  S
C534        H540   1.111       .  S
O541        C552   1.269       .  A
O542        C553   1.253       .  A
O542      Zr2736   2.335       .  S
O543        C554   1.299       .  A
O543      Zr1629   2.444       .  S
O544        C555   1.316       .  A
O544      Zr2709   2.552       .  S
O545        C555   1.283       .  A
O545       Zr579   2.470       .  S
O546        C554   1.314       .  A
O547        C553   1.277       .  A
O547      Zr1629   2.437       .  S
O548        C552   1.303       .  A
O548       Zr549   2.500       .  S
Zr549      O1623   2.446   1_545  S
Zr549      O2704   2.507       .  S
Zr549      O1627   2.431   1_545  S
Zr549      O3790   2.359   1_545  S
Zr549       O551   2.293       .  S
Zr549      O2719   2.358       .  S
Zr549      O1637   2.345   1_545  S
O550      Zr3789   2.349       .  S
O550       Zr576   2.367       .  S
O550      Zr1659   2.358       .  S
O551      Zr1118   2.261   1_545  S
C552       C3229   1.469       .  S
C553       C3197   1.416       .  S
C554       C2130   1.527       .  S
C555       C1018   1.539       .  S
H556        O557   0.957       .  S
O557      Zr1629   2.356       .  S
O557      Zr2736   2.355       .  S
H558        O559   0.959       .  S
O559      Zr2709   2.314       .  S
O559      Zr2197   2.361       .  S
O559       Zr579   2.381       .  S
O560        C583   1.272       .  A
O561        C584   1.255       .  A
O561      Zr2737   2.370   1_556  S
O562        C585   1.285       .  A
O562       Zr578   2.396   1_556  S
O563        C586   1.274       .  A
O563      Zr1659   2.456       .  S
O564        C587   1.286       .  A
O564       Zr579   2.499       .  S
O565        C588   1.304   1_554  A
O565      Zr1658   2.500   1_545  S
O566        C589   1.304       .  A
O566      Zr2740   2.474       .  S
O567        C590   1.271       .  A
O567      Zr1660   2.349       .  S
O568        C589   1.275       .  A
O568       Zr578   2.355   1_556  S
O569        C590   1.305       .  A
O570      Zr2736   2.400       .  S
O571        C588   1.266       .  A
O571       Zr577   2.322   1_556  S
O572      Zr2737   2.428       .  S
O573        C586   1.267       .  A
O573       Zr576   2.384       .  S
O574        C583   1.274       .  A
O574       Zr580   2.395       .  S
O575        C584   1.269       .  A
O575      Zr1660   2.323       .  S
Zr576      O2702   2.320       .  S
Zr576      O2730   2.396   1_455  S
Zr576      O2717   2.371   1_455  S
Zr576      O2202   2.323   1_455  S
Zr577      O2721   2.400   1_554  S
Zr577      O2732   2.389       .  S
Zr577      O2179   2.338       .  S
Zr577      O2741   2.293   1_554  S
Zr577       O592   2.314   1_554  S
Zr578      O1645   2.483   1_554  S
Zr578      O1091   2.268       .  S
Zr578       O582   2.383   1_554  S
Zr578      O1672   2.347   1_554  S
Zr579      O1643   2.467   1_545  S
Zr579      O1630   2.359   1_545  S
Zr579      O1134   2.367   1_545  S
Zr580      O2726   2.479   1_455  S
Zr580      O1647   2.427       .  S
Zr580      O1655   2.286       .  S
Zr580      O1661   2.303       .  S
Zr580      O2742   2.260   1_455  S
Zr580       O594   2.262       .  S
Zr580      O3832   2.306   1_455  S
O581      Zr2737   2.347   1_556  S
O581      Zr1660   2.358       .  S
O582      Zr2196   2.311       .  S
O582      Zr2740   2.264       .  S
C583       C3165   1.429       .  S
C584        C970   1.404       .  S
C585        C890   1.461       .  S
C586        C922   1.468       .  S
C587        C938   1.468       .  S
C588        C906   1.457       .  S
C589        C957   1.451       .  S
C590        C989   1.489       .  S
H591        O592   0.952       .  S
O592      Zr1658   2.288   1_546  S
O592      Zr3820   2.275       .  S
H593        O594   0.961       .  S
O594      Zr1119   2.345   1_556  S
C595        C606   1.589       .  S
C595        C596   1.422   1_455  A
C595        C600   1.482       .  A
C596        C597   1.418       .  A
C596        H601   1.085       .  S
C597       C1066   1.530       .  S
C597        C598   1.386       .  A
C598        C599   1.411   1_655  A
C598        H602   1.080       .  S
C599        C799   1.563       .  S
C599        C600   1.477       .  A
C600        H603   1.081       .  S
O604       C2766   1.291       .  A
O604       Zr616   2.507       .  S
O605        C606   1.311       .  A
O605       Zr642   2.584       .  S
C606       O2764   1.286   1_455  A
O607       C1689   1.295       .  A
O607       Zr619   2.535   1_565  S
O608        C609   1.281       .  A
O608       Zr643   2.458       .  S
C609       O1687   1.291       .  A
C609        C720   1.537       .  S
O610       C2772   1.302       .  A
O610       Zr619   2.541       .  S
O611        C612   1.325       .  A
O611       Zr642   2.588       .  S
C612       O2770   1.300   1_455  A
C612        C711   1.588       .  S
O613       C1695   1.286   1_545  A
O613       Zr616   2.443       .  S
O614        C615   1.329       .  A
O614       Zr643   2.594       .  S
C615       O1693   1.286       .  A
C615       C1746   1.548       .  S
Zr616       O622   2.328       .  S
Zr616       O623   2.345   1_545  S
Zr616      O1726   2.408   1_545  S
Zr616      O2808   2.379       .  S
Zr616       O617   2.441       .  S
Zr616       O618   2.424       .  S
O617        H660   0.990       .  S
O618        H659   0.987       .  S
O618        H663   0.984       .  S
Zr619       O623   2.355   1_545  S
Zr619       O622   2.353       .  S
Zr619      O2807   2.392       .  S
Zr619      O1729   2.417   1_545  S
Zr619       O620   2.456       .  S
Zr619       O621   2.433       .  S
O620        H661   0.988       .  S
O620        H664   0.991       .  S
O621        H654   0.986       .  S
O622      Zr2802   2.366       .  S
O623      Zr1723   2.421       .  S
O623        H650   0.963   1_565  S
O624       C2786   1.304   1_455  A
O624       Zr636   2.550       .  S
O625        C626   1.313       .  A
O625       Zr643   2.522       .  S
C626       O2784   1.304       .  A
C626       C2835   1.587       .  S
O627       C1709   1.294       .  A
O627       Zr639   2.494       .  S
O628        C629   1.330   1_545  A
O628       Zr642   2.596       .  S
C629       O1707   1.295       .  A
C629        C702   1.582       .  S
O630       C2792   1.305       .  A
O630       Zr639   2.502   1_655  S
O631        C632   1.301       .  A
O631       Zr643   2.519       .  S
C632       O2790   1.304       .  A
C632        C693   1.543       .  S
O633       C1715   1.285       .  A
O633       Zr636   2.440       .  S
O634        C635   1.304   1_545  A
O634       Zr642   2.469       .  S
C635       O1713   1.285       .  A
C635        C684   1.500   1_565  S
Zr636       O644   2.351       .  S
Zr636       O645   2.384       .  S
Zr636      O1728   2.426       .  S
Zr636      O2806   2.384   1_455  S
Zr636       O637   2.438       .  S
Zr636       O638   2.424       .  S
O637        H657   0.990       .  S
O637        H662   0.990       .  S
O638        H658   0.986       .  S
Zr639       O645   2.341       .  S
Zr639       O644   2.353       .  S
Zr639      O2809   2.361   1_455  S
Zr639      O1727   2.398       .  S
Zr639       O640   2.425       .  S
Zr639       O641   2.361       .  S
O640        H656   0.990       .  S
O641        H655   0.985       .  S
O641        H665   0.986       .  S
Zr642      O2782   2.382   1_455  S
Zr642      O1725   2.404   1_545  S
Zr642       O647   2.372       .  S
Zr642       O648   2.426       .  S
Zr643      O1703   2.422       .  S
Zr643      O2804   2.405       .  S
Zr643       O646   2.392       .  S
Zr643       O649   2.433       .  S
O644      Zr2803   2.411   1_455  S
O644        H652   0.964       .  S
O645      Zr1722   2.421       .  S
O646      Zr1696   2.409       .  S
O646      Zr2796   2.384       .  S
O647      Zr2779   2.399   1_455  S
O647      Zr1719   2.389   1_545  S
O647        H651   0.963       .  S
O648      Zr2776   2.379   1_455  S
O648      Zr1716   2.421   1_545  S
O648        H653   0.960       .  S
O649      Zr1699   2.412       .  S
O649      Zr2799   2.377       .  S
C666       C1695   1.534       .  S
C666        C667   1.404       .  A
C666        C671   1.472       .  A
C667        C668   1.386       .  A
C667        H672   1.083       .  S
C668       C1053   1.523       .  S
C668        C669   1.405       .  A
C669        C670   1.423       .  A
C669        H673   1.082       .  S
C670        C737   1.548       .  S
C670        C671   1.464       .  A
C671        H674   1.082   1_565  S
C675       C2786   1.589       .  S
C675        C676   1.400       .  A
C675        C680   1.522   1_655  A
C676        C677   1.370       .  A
C676        H681   1.082       .  S
C677       C1034   1.500       .  S
C677        C678   1.372       .  A
C678        C679   1.411       .  A
C678        H682   1.072       .  S
C679        C793   1.596       .  S
C679        C680   1.505   1_655  A
C680        H683   1.082       .  S
C684        C685   1.412       .  A
C684        C689   1.455   1_545  A
C685        C686   1.381       .  A
C685        H690   1.083       .  S
C686       C1021   1.532       .  S
C686        C687   1.413       .  A
C687        C688   1.413       .  A
C687        H691   1.080       .  S
C688        C731   1.533   1_545  S
C688        C689   1.449   1_545  A
C689        H692   1.082       .  S
C693        C694   1.413       .  A
C693        C698   1.471       .  A
C694        C695   1.389       .  A
C694        H699   1.085       .  S
C695       C1002   1.506       .  S
C695        C696   1.394       .  A
C696        C697   1.415       .  A
C696        H700   1.084       .  S
C697        C813   1.547       .  S
C697        C698   1.478       .  A
C698        H701   1.082       .  S
C702        C703   1.397   1_565  A
C702        C707   1.492       .  A
C703        C704   1.388       .  A
C703        H708   1.082       .  S
C704        C986   1.500       .  S
C704        C705   1.403       .  A
C705        C706   1.410   1_545  A
C705        H709   1.085       .  S
C706       C1831   1.598       .  S
C706        C707   1.502       .  A
C707        H710   1.082       .  S
C711        C712   1.421       .  A
C711        C716   1.495   1_455  A
C712        C713   1.403       .  A
C712        H717   1.081       .  S
C713        C973   1.505       .  S
C713        C714   1.420       .  A
C714        C715   1.426   1_455  A
C714        H718   1.084       .  S
C715       C2979   1.617       .  S
C715        C716   1.491       .  A
C716        H719   1.082       .  S
C720        C721   1.415       .  A
C720        C725   1.465       .  A
C721        C722   1.401       .  A
C721        H726   1.083       .  S
C722        C954   1.509       .  S
C722        C723   1.388       .  A
C723        C724   1.415       .  A
C723        H727   1.081       .  S
C724        C757   1.532       .  S
C724        C725   1.460       .  A
C725        H728   1.082       .  S
O729       C1811   1.290       .  A
O729       Zr741   2.490       .  S
O730        C731   1.302   1_545  A
O730       Zr767   2.497       .  S
C731       O1809   1.290       .  A
O732       Zr744   2.481       .  S
O733        C734   1.300       .  A
O733       Zr768   2.556       .  S
C734        C884   1.573       .  S
O735       C1817   1.290       .  A
O735       Zr744   2.433       .  S
O736        C737   1.322   1_545  A
O736       Zr767   2.603       .  S
C737       O1815   1.286       .  A
O738       Zr741   2.495       .  S
O739        C740   1.317       .  A
O739       Zr768   2.539       .  S
Zr741       O747   2.364       .  S
Zr741       O748   2.356       .  S
Zr741      O1853   2.414       .  S
Zr741       O742   2.440       .  S
Zr741       O743   2.403       .  S
O742        H785   0.989       .  S
O743        H784   0.984       .  S
O743        H788   0.990       .  S
Zr744       O748   2.351       .  S
Zr744       O747   2.339       .  S
Zr744      O1852   2.348       .  S
Zr744       O745   2.421       .  S
Zr744       O746   2.460       .  S
O745        H786   0.989       .  S
O745        H789   0.988       .  S
O746        H779   0.987       .  S
O747      Zr1847   2.389       .  S
O748        H775   0.961       .  S
O749       C1831   1.313       .  A
O749       Zr761   2.553   1_565  S
O750        C751   1.322       .  A
O750       Zr768   2.600       .  S
C751       O1829   1.294       .  A
C751       C1786   1.560       .  S
O752       Zr764   2.562       .  S
O753        C754   1.299       .  A
O753       Zr767   2.526       .  S
C754        C875   1.567       .  S
O755       C1837   1.292       .  A
O755       Zr764   2.447   1_565  S
O756        C757   1.306       .  A
O756       Zr768   2.536       .  S
C757       O1835   1.294       .  A
O758       Zr761   2.535       .  S
O759        C760   1.324       .  A
O759       Zr767   2.593       .  S
C760        C853   1.578       .  S
Zr761       O769   2.346   1_545  S
Zr761       O770   2.327       .  S
Zr761      O1851   2.428   1_545  S
Zr761       O762   2.453       .  S
Zr761       O763   2.366       .  S
O762        H782   0.988       .  S
O762        H787   0.988       .  S
O763        H783   0.980       .  S
Zr764       O770   2.316       .  S
Zr764       O769   2.326   1_545  S
Zr764      O1854   2.379   1_545  S
Zr764       O765   2.431       .  S
Zr764       O766   2.391       .  S
O765        H781   0.989       .  S
O766        H780   0.990   1_545  S
O766        H790   0.978       .  S
Zr767      O1827   2.388   1_545  S
Zr767       O772   2.379       .  S
Zr767       O773   2.424       .  S
Zr768      O1849   2.388       .  S
Zr768       O771   2.447       .  S
Zr768       O774   2.419       .  S
O769      Zr1848   2.399       .  S
O769        H777   0.963   1_565  S
O771      Zr1841   2.425       .  S
O772      Zr1824   2.359   1_545  S
O772        H776   0.963       .  S
O773      Zr1821   2.416   1_545  S
O773        H778   0.960       .  S
O774      Zr1844   2.370       .  S
O791       C2953   1.300       .  A
O791       Zr803   2.510       .  S
O792        C793   1.306   1_455  A
O792       Zr829   2.588       .  S
C793       O2951   1.300       .  A
O794       Zr806   2.499       .  S
O795        C796   1.317       .  A
O795       Zr830   2.539       .  S
O797       C2959   1.300       .  A
O797       Zr806   2.486       .  S
O798        C799   1.309       .  A
O798       Zr829   2.555       .  S
C799       O2957   1.299   1_455  A
O800       Zr803   2.518       .  S
O801        C802   1.294       .  A
O801       Zr830   2.529       .  S
C802        C880   1.568       .  S
Zr803       O809   2.342       .  S
Zr803       O810   2.361       .  S
Zr803      O2995   2.391       .  S
Zr803       O804   2.429       .  S
Zr803       O805   2.420       .  S
O804        H847   0.989       .  S
O805        H846   0.985       .  S
O805        H850   0.984       .  S
Zr806       O810   2.345       .  S
Zr806       O809   2.343       .  S
Zr806      O2994   2.390       .  S
Zr806       O807   2.422       .  S
Zr806       O808   2.352       .  S
O807        H848   0.989       .  S
O807        H851   0.989       .  S
O808        H841   0.986       .  S
O809      Zr2989   2.398       .  S
O810        H837   0.963       .  S
O811       C2973   1.314       .  A
O811       Zr823   2.546   1_655  S
O812        C813   1.295       .  A
O812       Zr830   2.501       .  S
C813       O2971   1.304       .  A
O814       Zr826   2.533       .  S
O815        C816   1.311       .  A
O815       Zr829   2.518       .  S
C816        C857   1.568       .  S
O817       C2979   1.296   1_455  A
O817       Zr826   2.599       .  S
O818        C819   1.315       .  A
O818       Zr830   2.598       .  S
C819       O2977   1.312       .  A
C819       C2875   1.606       .  S
O820       Zr823   2.491       .  S
O821        C822   1.292       .  A
O821       Zr829   2.542       .  S
C822        C866   1.558       .  S
Zr823       O831   2.304       .  S
Zr823       O832   2.363       .  S
Zr823      O2993   2.366   1_455  S
Zr823       O824   2.437       .  S
Zr823       O825   2.440       .  S
O824        H844   0.988       .  S
O824        H849   0.987       .  S
O825        H845   0.987       .  S
Zr826       O832   2.353       .  S
Zr826       O831   2.340       .  S
Zr826      O2996   2.406   1_455  S
Zr826       O827   2.444       .  S
Zr826       O828   2.373       .  S
O827        H843   0.990       .  S
O828        H842   0.978       .  S
O828        H852   0.982       .  S
Zr829      O2969   2.404   1_455  S
Zr829       O834   2.423       .  S
Zr829       O835   2.471       .  S
Zr830      O2991   2.413       .  S
Zr830       O833   2.411       .  S
Zr830       O836   2.412       .  S
O831      Zr2990   2.425   1_455  S
O831        H839   0.955       .  S
O833      Zr2983   2.359       .  S
O834      Zr2966   2.412   1_455  S
O834        H838   0.966       .  S
O835      Zr2963   2.385   1_455  S
O835        H840   0.963       .  S
O836      Zr2986   2.407       .  S
C853        C854   1.422       .  A
C853        C858   1.487       .  A
C854        C855   1.414       .  A
C854        H859   1.083       .  S
C855        C941   1.526       .  S
C855        C856   1.390       .  A
C856        C857   1.411       .  A
C856        H860   1.080       .  S
C857        C858   1.473       .  A
C858        H861   1.081       .  S
C862        C863   1.408       .  A
C862        C867   1.492       .  A
C865        C866   1.409       .  A
C865        H869   1.076       .  S
C866        C867   1.484       .  A
C867        H870   1.081       .  S
C871        C872   1.408       .  A
C871        C876   1.483       .  A
C872        C873   1.386       .  A
C872        H877   1.082       .  S
C873        C874   1.401       .  A
C874        C875   1.425       .  A
C874        H878   1.083       .  S
C875        C876   1.484       .  A
C876        H879   1.080       .  S
C880        C881   1.409   1_556  A
C880        C885   1.504       .  A
C881        C882   1.380       .  A
C881        H886   1.078       .  S
C882        C893   1.533       .  S
C882        C883   1.384       .  A
C883        C884   1.418   1_554  A
C883        H887   1.080       .  S
C884        C885   1.504       .  A
C885        H888   1.081       .  S
C889        C890   1.381       .  A
C889        C894   1.392       .  A
C889        H896   1.087       .  S
C891        C892   1.402       .  A
C891        C898   1.473       .  S
C892        H897   1.074       .  S
C893        C894   1.412   1_554  A
C894        C895   1.460   1_556  S
C895        H899   1.106       .  S
C895        H901   1.112   1_554  S
C898        H902   1.094       .  S
C898        H904   1.079       .  S
C905        C906   1.417       .  A
C905        C910   1.411       .  A
C905        H912   1.083       .  S
C907        C908   1.380       .  A
C907        C914   1.528       .  S
C908        H913   1.045       .  S
C909        C910   1.416       .  A
C910        C911   1.502       .  S
C911        H915   1.103       .  S
C911        H917   1.107       .  S
C914        H918   1.105       .  S
C914        H920   1.092       .  S
C921        C922   1.378       .  A
C921        C926   1.377       .  A
C921        H928   1.088       .  S
C923        C924   1.410       .  A
C923        C930   1.476       .  S
C924        H929   1.084       .  S
C925        C926   1.436       .  A
C926        C927   1.490       .  S
C927        H931   1.099       .  S
C927        H932   1.108       .  S
C927        H933   1.077       .  S
C930        H934   1.094       .  S
C930        H935   1.102       .  S
C930        H936   1.100       .  S
C937        C938   1.416       .  A
C937        C942   1.419       .  A
C937        H944   1.080       .  S
C938        C939   1.399       .  A
C939        C940   1.381       .  A
C939        C946   1.504       .  S
C940        C941   1.390       .  A
C940        H945   1.055       .  S
C941        C942   1.414       .  A
C942        C943   1.499       .  S
C943        H947   1.110       .  S
C943        H949   1.108       .  S
C946        H951   1.092       .  S
C946        H952   1.099       .  S
C953       C2034   1.385       .  A
C953        C958   1.366       .  A
C953        H960   1.066       .  S
C954       C2033   1.379       .  A
C954        C955   1.399       .  A
C955        C956   1.424       .  A
C955        C962   1.498       .  S
C956        C957   1.423       .  A
C956        H961   1.066       .  S
C957       C2038   1.379       .  A
C958       C2037   1.384       .  A
C958        C959   1.510   1_545  S
C959        H963   1.108       .  S
C959       H2044   1.106       .  S
C959        H965   1.105       .  S
C962        H966   1.106       .  S
C962       H2047   1.095       .  S
C962        H968   1.111       .  S
H964       C2039   1.101       .  S
H967       C2042   1.111       .  S
C969        C970   1.448       .  A
C969        C974   1.445       .  A
C969        H976   1.079       .  S
C970       C3131   1.372       .  A
C971       C3130   1.382       .  A
C971        C972   1.358       .  A
C971        C978   1.533       .  S
C972       C3133   1.405       .  A
C972        H977   1.052       .  S
C973       C3132   1.368       .  A
C973        C974   1.421       .  A
C974        C975   1.494       .  S
C975        H979   1.111       .  S
C975        H980   1.110       .  S
C975        H981   1.110       .  S
C978        H982   1.102       .  S
C978        H983   1.105       .  S
C978        H984   1.104       .  S
C985       C2066   1.396       .  A
C985        C990   1.406       .  A
C985        H992   1.083       .  S
C986       C2065   1.419       .  A
C986        C987   1.413       .  A
C987        C988   1.378       .  A
C987        C994   1.552       .  S
C988        C989   1.378       .  A
C988        H993   1.072       .  S
C989       C2070   1.461       .  A
C990       C2069   1.435       .  A
C990        C991   1.497       .  S
C991        H995   1.105       .  S
C991       H2076   1.090       .  S
C991        H997   1.102       .  S
C994        H998   1.050   1_545  S
C994       H2079   1.110       .  S
C994       H1000   1.089       .  S
H996       C2071   1.091       .  S
H999       C2074   1.107       .  S
C1001      C1002   1.407       .  A
C1001      C1006   1.354       .  A
C1001      H1008   1.052       .  S
C1002      C3163   1.411       .  A
C1003      C3162   1.411       .  A
C1003      C1004   1.419       .  A
C1003      C1010   1.501       .  S
C1004      C3165   1.413       .  A
C1004      H1009   1.077       .  S
C1005      C2743   1.439       .  S
C1005      C3164   1.413       .  A
C1005      C1006   1.384       .  A
C1006      C1007   1.516       .  S
C1007      H1011   1.105       .  S
C1007      H1012   1.111       .  S
C1007      H1013   1.104       .  S
C1010      H1014   1.110       .  S
C1010      H1015   1.110       .  S
C1010      H1016   1.111       .  S
C1017      C1018   1.430       .  A
C1017      C1022   1.429       .  A
C1017      H1024   1.072       .  S
C1018      C2099   1.414       .  A
C1019      C2098   1.414       .  A
C1019      C1020   1.422       .  A
C1019      C1026   1.480       .  S
C1020      C2101   1.414       .  A
C1020      H1025   1.083       .  S
C1021      C2100   1.413       .  A
C1021      C1022   1.386       .  A
C1022      C1023   1.517       .  S
C1023      H1027   1.110       .  S
C1023      H2108   1.099       .  S
C1023      H1029   1.100       .  S
C1026      H1030   1.111       .  S
C1026      H2111   1.101       .  S
C1026      H1032   1.099       .  S
H1028      C2103   1.100       .  S
H1031      C2106   1.098       .  S
C1033      C1034   1.427       .  A
C1033      C1038   1.357   1_655  A
C1033      H1040   1.040   1_655  S
C1034      C3195   1.397       .  A
C1035      C3194   1.395       .  A
C1035      C1036   1.400       .  A
C1035      C1042   1.495       .  S
C1036      C3197   1.412       .  A
C1036      H1041   1.081       .  S
C1037      C2713   1.406   1_655  S
C1037      C3196   1.410       .  A
C1037      C1038   1.371   1_655  A
C1038      C1039   1.527       .  S
C1039      H1043   1.110       .  S
C1039      H1044   1.108       .  S
C1039      H1045   1.111       .  S
C1042      H1046   1.102       .  S
C1042      H1047   1.100       .  S
C1042      H1048   1.101       .  S
C1049      C2130   1.409       .  A
C1049      C1054   1.411       .  A
C1049      H1056   1.049       .  S
C1050      C1634   1.534       .  S
C1050      C2129   1.409       .  A
C1050      C1051   1.434       .  A
C1051      C1052   1.412       .  A
C1051      C1058   1.482       .  S
C1052      C1053   1.398       .  A
C1052      H1057   1.082       .  S
C1053      C2134   1.387       .  A
C1054      C2133   1.386       .  A
C1054      C1055   1.493       .  S
C1055      H1059   1.109       .  S
C1055      H2140   1.102       .  S
C1055      H1061   1.107       .  S
C1058      H1062   1.096       .  S
C1058      H2143   1.109       .  S
C1058      H1064   1.081       .  S
H1060      C2135   1.097       .  S
H1063      C2138   1.106       .  S
C1065      C1066   1.382       .  A
C1065      C1070   1.381       .  A
C1065      H1072   1.042       .  S
C1066      C3227   1.428       .  A
C1067      C3226   1.424       .  A
C1067      C1068   1.436       .  A
C1067      C1074   1.501       .  S
C1068      C3229   1.420       .  A
C1068      H1073   1.081       .  S
C1069      C2712   1.473       .  S
C1069      C3228   1.421       .  A
C1069      C1070   1.382       .  A
C1070      C1071   1.512       .  S
C1071      H1075   1.080       .  S
C1071      H1076   1.078   1_655  S
C1071      H1077   1.103   1_655  S
C1074      H1078   1.108       .  S
C1074      H1079   1.110       .  S
C1074      H1080   1.110       .  S
O1081      C1092   1.269       .  A
O1081     Zr1657   2.432       .  S
O1082      C1093   1.252       .  A
O1082     Zr3276   2.334   1_554  S
O1083      C1094   1.300       .  A
O1084      C1095   1.316       .  A
O1084     Zr3249   2.545       .  S
O1085      C1095   1.286       .  A
O1085     Zr1119   2.470       .  S
O1086      C1094   1.314       .  A
O1086     Zr1658   2.535       .  S
O1087      C1093   1.276       .  A
O1088      C1092   1.303       .  A
O1088     Zr1089   2.501       .  S
Zr1089     O3244   2.549       .  S
Zr1089     O2170   2.361       .  S
Zr1089     O1091   2.300       .  S
Zr1089     O3259   2.339       .  S
O1090     Zr2169   2.347   1_565  S
O1090     Zr1116   2.365   1_554  S
O1091     Zr1657   2.299       .  S
C1092      C3769   1.473       .  S
C1093      C3737   1.417       .  S
C1095      C1558   1.535       .  S
H1096      O1097   0.961       .  S
O1097     Zr3276   2.353   1_554  S
O1097     Zr1658   2.304       .  S
H1098      O1099   0.961       .  S
O1099     Zr3249   2.340       .  S
O1099     Zr3817   2.353   1_455  S
O1099     Zr1119   2.375       .  S
O1100      C1123   1.271       .  A
O1100     Zr1656   2.358       .  S
O1101      C1124   1.266       .  A
O1101     Zr3277   2.412   1_455  S
O1102      C1125   1.279       .  A
O1102     Zr1118   2.375       .  S
O1103      C1126   1.276   1_556  A
O1104      C1127   1.281       .  A
O1104     Zr1119   2.482       .  S
O1105      C1128   1.303       .  A
O1106      C1129   1.300       .  A
O1106     Zr3280   2.499       .  S
O1107      C1130   1.277       .  A
O1108      C1129   1.271   1_565  A
O1108     Zr1118   2.340       .  S
O1109      C1130   1.309       .  A
O1109     Zr1659   2.515       .  S
O1110      C1665   1.279       .  A
O1110     Zr3276   2.395       .  S
O1111      C1128   1.268       .  A
O1111     Zr1117   2.335       .  S
O1112      C1667   1.279       .  A
O1112     Zr3277   2.416   1_455  S
O1113      C1126   1.261       .  A
O1113     Zr1116   2.360   1_554  S
O1114      C1123   1.287       .  A
O1114     Zr1120   2.461   1_565  S
O1115      C1124   1.274       .  A
Zr1116     O3242   2.304   1_556  S
Zr1116     O1640   2.367       .  S
Zr1116     O3270   2.405   1_455  S
Zr1116     O3257   2.330   1_456  S
Zr1116     O3822   2.328   1_455  S
Zr1116     O1674   2.354       .  S
Zr1117     O1621   2.391       .  S
Zr1117     O3261   2.410       .  S
Zr1117     O3272   2.386       .  S
Zr1117     O1631   2.292       .  S
Zr1117     O3799   2.345       .  S
Zr1117     O3281   2.288       .  S
Zr1117     O1132   2.305       .  S
Zr1118     O1626   2.540       .  S
Zr1118     O1637   2.298       .  S
Zr1118     O1122   2.380       .  S
Zr1119     O1649   2.533   1_554  S
Zr1119     O1661   2.241   1_554  S
Zr1120     O3266   2.419   1_455  S
Zr1120     O3282   2.302   1_445  S
Zr1120     O1134   2.259   1_545  S
Zr1120     O2212   2.327   1_455  S
O1121     Zr3277   2.273   1_455  S
O1121     Zr1659   2.242       .  S
O1122     Zr3816   2.323       .  S
O1122     Zr3280   2.253   1_565  S
C1123      C3705   1.451       .  S
C1124      C1510   1.431       .  S
C1125      O1650   1.285       .  A
C1125      C1430   1.461       .  S
C1126      C1462   1.477   1_554  S
C1127      O1652   1.265       .  A
C1127      C1478   1.472       .  S
C1128      C1446   1.455       .  S
C1129      C1497   1.486       .  S
C1130      C1529   1.497       .  S
H1131      O1132   0.952       .  S
O1132     Zr2200   2.271       .  S
H1133      O1134   0.961       .  S
O1134     Zr1656   2.289       .  S
C1135      C1146   1.589       .  S
C1135      C1136   1.420   1_455  A
C1135      C1140   1.481       .  A
C1136      C1137   1.419       .  A
C1136      H1141   1.085       .  S
C1137      C1606   1.527       .  S
C1137      C1138   1.388       .  A
C1138      C1139   1.408   1_655  A
C1138      H1142   1.079       .  S
C1139      C1339   1.561       .  S
C1139      C1140   1.475       .  A
C1140      H1143   1.078       .  S
O1144      C3306   1.289       .  A
O1144     Zr1156   2.492       .  S
O1145      C1146   1.307       .  A
O1145     Zr1182   2.565       .  S
C1146      O3304   1.290   1_455  A
O1147     Zr1159   2.528       .  S
O1148      C1149   1.278       .  A
O1148     Zr1183   2.475       .  S
C1149      C1260   1.529       .  S
O1150      C3312   1.302       .  A
O1150     Zr1159   2.539       .  S
O1151      C1152   1.324       .  A
O1151     Zr1182   2.577       .  S
C1152      O3310   1.300   1_455  A
C1152      C1251   1.599       .  S
O1153     Zr1156   2.439       .  S
O1154      C1155   1.328       .  A
O1154     Zr1183   2.588       .  S
Zr1156     O1162   2.328       .  S
Zr1156     O1163   2.338       .  S
Zr1156     O3348   2.372       .  S
Zr1156     O1157   2.442       .  S
Zr1156     O1158   2.416       .  S
O1157      H1200   0.990       .  S
O1158      H1199   0.986       .  S
O1158      H1203   0.982       .  S
Zr1159     O1163   2.354       .  S
Zr1159     O1162   2.349       .  S
Zr1159     O3347   2.392       .  S
Zr1159     O1160   2.448       .  S
Zr1159     O1161   2.426       .  S
O1160      H1201   0.987       .  S
O1160      H1204   0.990       .  S
O1161      H1194   0.986       .  S
O1162     Zr3342   2.365       .  S
O1163      H1190   0.963       .  S
O1164      C3326   1.304   1_455  A
O1164     Zr1176   2.544       .  S
O1165      C1166   1.311       .  A
O1165     Zr1183   2.516       .  S
C1166      O3324   1.303       .  A
C1166      C3375   1.582       .  S
O1167     Zr1179   2.504       .  S
O1168      C1169   1.327       .  A
O1168     Zr1182   2.580       .  S
C1169      C1242   1.569       .  S
O1170      C3332   1.303       .  A
O1170     Zr1179   2.491   1_655  S
O1171      C1172   1.300       .  A
O1171     Zr1183   2.513       .  S
C1172      O3330   1.306       .  A
C1172      C1233   1.544       .  S
O1173     Zr1176   2.464       .  S
O1174      C1175   1.301       .  A
O1174     Zr1182   2.457       .  S
C1175      C1224   1.497       .  S
Zr1176     O1184   2.353       .  S
Zr1176     O1185   2.379       .  S
Zr1176     O3346   2.393   1_455  S
Zr1176     O1177   2.437       .  S
Zr1176     O1178   2.424       .  S
O1177      H1197   0.990       .  S
O1177      H1202   0.990       .  S
O1178      H1198   0.988       .  S
Zr1179     O1185   2.356       .  S
Zr1179     O1184   2.360       .  S
Zr1179     O3349   2.382   1_455  S
Zr1179     O1180   2.415       .  S
Zr1179     O1181   2.400       .  S
O1180      H1196   0.989       .  S
O1181      H1195   0.980       .  S
O1181      H1205   0.987       .  S
Zr1182     O3322   2.360   1_455  S
Zr1182     O1187   2.383       .  S
Zr1182     O1188   2.431       .  S
Zr1183     O3344   2.406       .  S
Zr1183     O1186   2.390       .  S
Zr1183     O1189   2.403       .  S
O1184     Zr3343   2.401   1_455  S
O1184      H1192   0.964       .  S
O1186     Zr3336   2.385       .  S
O1187     Zr3319   2.395   1_455  S
O1187      H1191   0.962       .  S
O1188     Zr3316   2.377   1_455  S
O1188      H1193   0.960       .  S
O1189     Zr3339   2.359       .  S
C1206      C1207   1.403       .  A
C1206      C1211   1.475       .  A
C1207      C1208   1.386       .  A
C1207      H1212   1.083       .  S
C1208      C1593   1.524       .  S
C1208      C1209   1.408       .  A
C1209      C1210   1.422       .  A
C1209      H1213   1.083       .  S
C1210      C1277   1.554       .  S
C1210      C1211   1.468       .  A
C1211      H1214   1.082       .  S
C1215      C3326   1.591       .  S
C1215      C1216   1.400       .  A
C1215      C1220   1.526       .  A
C1216      C1217   1.369       .  A
C1216      H1221   1.082       .  S
C1217      C1574   1.501       .  S
C1217      C1218   1.375       .  A
C1218      C1219   1.411       .  A
C1218      H1222   1.071       .  S
C1219      C1333   1.605       .  S
C1219      C1220   1.508       .  A
C1220      H1223   1.081   1_655  S
C1224      C1225   1.413       .  A
C1224      C1229   1.449       .  A
C1225      C1226   1.383       .  A
C1225      H1230   1.084       .  S
C1226      C1561   1.530       .  S
C1226      C1227   1.411       .  A
C1227      C1228   1.414       .  A
C1227      H1231   1.080       .  S
C1228      C1271   1.524       .  S
C1228      C1229   1.445       .  A
C1229      H1232   1.082       .  S
C1233      C1234   1.412       .  A
C1233      C1238   1.472       .  A
C1234      C1235   1.390       .  A
C1234      H1239   1.085       .  S
C1235      C1542   1.505       .  S
C1235      C1236   1.396       .  A
C1236      C1237   1.418       .  A
C1236      H1240   1.084       .  S
C1237      C1353   1.551       .  S
C1237      C1238   1.478       .  A
C1238      H1241   1.082       .  S
C1242      C1243   1.398       .  A
C1242      C1247   1.489       .  A
C1243      C1244   1.387       .  A
C1243      H1248   1.081       .  S
C1244      C1526   1.511       .  S
C1244      C1245   1.404       .  A
C1245      C1246   1.415       .  A
C1245      H1249   1.082       .  S
C1246      C1247   1.490       .  A
C1247      H1250   1.081       .  S
C1251      C1252   1.419       .  A
C1251      C1256   1.507   1_455  A
C1252      C1253   1.401       .  A
C1252      H1257   1.082       .  S
C1253      C1513   1.505       .  S
C1253      C1254   1.397       .  A
C1254      C1255   1.414   1_455  A
C1254      H1258   1.085       .  S
C1255      C3519   1.601       .  S
C1255      C1256   1.505       .  A
C1256      H1259   1.079       .  S
C1260      C1261   1.405   1_565  A
C1260      C1265   1.467       .  A
C1261      C1262   1.387       .  A
C1261      H1266   1.082       .  S
C1262      C1494   1.512       .  S
C1262      C1263   1.392       .  A
C1263      C1264   1.412   1_545  A
C1263      H1267   1.085       .  S
C1264      C1297   1.531       .  S
C1264      C1265   1.467       .  A
C1265      H1268   1.082       .  S
O1269     Zr1281   2.485       .  S
O1270      C1271   1.300       .  A
O1270     Zr1307   2.484       .  S
O1272      C1814   1.292       .  A
O1272     Zr1284   2.489   1_556  S
O1273      C1274   1.300       .  A
O1273     Zr1308   2.558       .  S
C1274      O1812   1.291       .  A
C1274      C1424   1.570       .  S
O1275     Zr1284   2.422       .  S
O1276      C1277   1.324       .  A
O1276     Zr1307   2.611       .  S
O1278      C1820   1.291   1_554  A
O1278     Zr1281   2.479       .  S
O1279      C1280   1.316       .  A
O1279     Zr1308   2.533       .  S
C1280      O1818   1.298       .  A
C1280      C1942   1.563       .  S
Zr1281     O1287   2.355       .  S
Zr1281     O1288   2.357       .  S
Zr1281     O1851   2.446   1_554  S
Zr1281     O1282   2.436       .  S
Zr1281     O1283   2.419       .  S
O1282      H1325   0.990       .  S
O1283      H1324   0.986       .  S
O1283      H1328   0.990       .  S
Zr1284     O1288   2.352       .  S
Zr1284     O1287   2.340       .  S
Zr1284     O1854   2.363   1_554  S
Zr1284     O1285   2.415       .  S
Zr1284     O1286   2.457       .  S
O1285      H1326   0.989       .  S
O1285      H1329   0.987       .  S
O1286      H1319   0.986       .  S
O1288     Zr1848   2.421   1_554  S
O1288      H1315   0.963       .  S
O1289     Zr1301   2.499       .  S
O1290      C1291   1.328       .  A
O1290     Zr1308   2.626       .  S
O1292      C1834   1.305       .  A
O1292     Zr1304   2.555       .  S
O1293      C1294   1.299       .  A
O1293     Zr1307   2.523       .  S
C1294      O1832   1.305   1_554  A
C1294      C1415   1.563       .  S
O1295     Zr1304   2.455       .  S
O1296      C1297   1.300       .  A
O1296     Zr1308   2.508       .  S
O1298      C1840   1.297       .  A
O1298     Zr1301   2.508       .  S
O1299      C1300   1.326       .  A
O1299     Zr1307   2.604       .  S
C1300      O1838   1.299   1_554  A
C1300      C1393   1.592       .  S
Zr1301     O1309   2.361       .  S
Zr1301     O1310   2.326       .  S
Zr1301     O1853   2.412       .  S
Zr1301     O1302   2.446       .  S
Zr1301     O1303   2.380       .  S
O1302      H1322   0.987       .  S
O1302      H1327   0.987       .  S
O1303      H1323   0.981       .  S
Zr1304     O1310   2.319       .  S
Zr1304     O1309   2.325       .  S
Zr1304     O1852   2.373       .  S
Zr1304     O1305   2.434       .  S
Zr1304     O1306   2.389       .  S
O1305      H1321   0.989       .  S
O1306      H1320   0.990       .  S
O1306      H1330   0.979       .  S
Zr1307     O1850   2.371   1_554  S
Zr1307     O1312   2.380       .  S
Zr1307     O1313   2.425       .  S
Zr1308     O1828   2.407       .  S
Zr1308     O1311   2.439       .  S
Zr1308     O1314   2.429       .  S
O1309      H1317   0.963       .  S
O1310     Zr1847   2.380       .  S
O1311     Zr1821   2.436       .  S
O1312     Zr1844   2.359   1_554  S
O1312      H1316   0.959       .  S
O1313     Zr1841   2.401   1_554  S
O1313      H1318   0.960       .  S
O1314     Zr1824   2.365       .  S
O1331      C3493   1.299       .  A
O1331     Zr1343   2.505       .  S
O1332      C1333   1.310   1_455  A
O1332     Zr1369   2.605       .  S
C1333      O3491   1.299       .  A
O1334      C1876   1.295   1_554  A
O1334     Zr1346   2.504       .  S
O1335      C1336   1.312       .  A
O1335     Zr1370   2.526       .  S
C1336      O1874   1.297       .  A
C1336      C1951   1.555       .  S
O1337      C3499   1.299       .  A
O1337     Zr1346   2.486       .  S
O1338      C1339   1.309       .  A
O1338     Zr1369   2.550       .  S
C1339      O3497   1.302   1_455  A
O1340      C1882   1.301   1_554  A
O1340     Zr1343   2.511       .  S
O1341      C1342   1.293       .  A
O1341     Zr1370   2.528       .  S
C1342      O1880   1.300       .  A
C1342      C1420   1.566       .  S
Zr1343     O1349   2.345       .  S
Zr1343     O1350   2.362       .  S
Zr1343     O1913   2.390   1_554  S
Zr1343     O3535   2.387       .  S
Zr1343     O1344   2.428       .  S
Zr1343     O1345   2.421       .  S
O1344      H1387   0.989       .  S
O1345      H1386   0.986       .  S
O1345      H1390   0.984       .  S
Zr1346     O1350   2.345       .  S
Zr1346     O1349   2.345       .  S
Zr1346     O3534   2.392       .  S
Zr1346     O1916   2.427   1_554  S
Zr1346     O1347   2.424       .  S
Zr1346     O1348   2.358       .  S
O1347      H1388   0.989       .  S
O1347      H1391   0.989       .  S
O1348      H1381   0.988       .  S
O1349     Zr3529   2.398       .  S
O1350     Zr1910   2.432   1_554  S
O1350      H1377   0.963       .  S
O1351      C3513   1.300       .  A
O1351     Zr1363   2.482   1_655  S
O1352      C1353   1.300       .  A
O1352     Zr1370   2.521       .  S
C1353      O3511   1.300       .  A
O1354      C1896   1.298       .  A
O1354     Zr1366   2.509       .  S
O1355      C1356   1.316       .  A
O1355     Zr1369   2.538       .  S
C1356      O1894   1.304   1_554  A
C1356      C1397   1.580       .  S
O1357      C3519   1.311   1_455  A
O1357     Zr1366   2.535       .  S
O1358      C1359   1.315       .  A
O1358     Zr1370   2.594       .  S
C1359      O3517   1.313       .  A
C1359      C3415   1.603       .  S
O1360      C1902   1.291       .  A
O1360     Zr1363   2.469       .  S
O1361      C1362   1.289       .  A
O1361     Zr1369   2.517       .  S
C1362      O1900   1.287   1_554  A
C1362      C1406   1.543       .  S
Zr1363     O1371   2.345       .  S
Zr1363     O1372   2.349       .  S
Zr1363     O1915   2.410       .  S
Zr1363     O3533   2.362   1_455  S
Zr1363     O1364   2.439       .  S
Zr1363     O1365   2.441       .  S
O1364      H1384   0.989       .  S
O1364      H1389   0.989       .  S
O1365      H1385   0.989       .  S
Zr1366     O1372   2.351       .  S
Zr1366     O1371   2.345       .  S
Zr1366     O3536   2.398   1_455  S
Zr1366     O1914   2.406       .  S
Zr1366     O1367   2.417       .  S
Zr1366     O1368   2.353       .  S
O1367      H1383   0.990       .  S
O1368      H1382   0.984   1_455  S
O1368      H1392   0.983       .  S
Zr1369     O3509   2.392   1_455  S
Zr1369     O1912   2.449   1_554  S
Zr1369     O1374   2.414       .  S
Zr1369     O1375   2.471       .  S
Zr1370     O1890   2.452       .  S
Zr1370     O3531   2.404       .  S
Zr1370     O1373   2.393       .  S
Zr1370     O1376   2.418       .  S
O1371     Zr3530   2.410   1_455  S
O1371      H1379   0.963       .  S
O1372     Zr1909   2.429       .  S
O1373     Zr1883   2.414       .  S
O1373     Zr3523   2.358       .  S
O1374     Zr3506   2.396   1_455  S
O1374     Zr1906   2.409   1_554  S
O1374      H1378   0.966       .  S
O1375     Zr3503   2.385   1_455  S
O1375     Zr1903   2.415   1_554  S
O1375      H1380   0.963       .  S
O1376     Zr1886   2.432       .  S
O1376     Zr3526   2.406       .  S
C1393      C1394   1.422       .  A
C1393      C1398   1.497       .  A
C1394      C1395   1.412       .  A
C1394      H1399   1.082       .  S
C1395      C1481   1.526       .  S
C1395      C1396   1.391       .  A
C1396      C1397   1.410       .  A
C1396      H1400   1.080       .  S
C1397      C1398   1.487       .  A
C1398      H1401   1.081   1_554  S
C1402      C1820   1.539       .  S
C1402      C1403   1.407       .  A
C1402      C1407   1.487   1_556  A
C1403      C1944   1.388       .  A
C1403      H1948   1.083       .  S
C1404      C2005   1.513       .  S
C1404      C1943   1.386       .  A
C1404      C1945   1.382       .  A
C1405      C1944   1.378       .  A
C1405      C1406   1.407   1_556  A
C1405      H1409   1.077       .  S
C1406      C1407   1.479       .  A
C1407      H1410   1.081       .  S
H1408      C1943   1.082       .  S
C1411      C1876   1.555       .  S
C1411      C1412   1.409       .  A
C1411      C1416   1.479   1_556  A
C1412      C1413   1.386       .  A
C1412      H1417   1.081       .  S
C1413      C1989   1.527       .  S
C1413      C1414   1.404       .  A
C1414      C1415   1.425   1_556  A
C1414      H1418   1.083       .  S
C1415      C1416   1.482       .  A
C1416      H1419   1.080       .  S
C1420      C1421   1.409       .  A
C1420      C1425   1.503       .  A
C1421      C1422   1.380       .  A
C1421      H1426   1.078       .  S
C1422      C1433   1.534       .  S
C1422      C1423   1.380       .  A
C1423      C1424   1.416       .  A
C1423      H1427   1.080       .  S
C1424      C1425   1.502       .  A
C1425      H1428   1.081       .  S
C1429      C1430   1.384       .  A
C1429      C1434   1.392       .  A
C1429      H1436   1.087       .  S
C1430      C1971   1.381       .  A
C1431      C1970   1.395       .  A
C1431      C1432   1.403   1_556  A
C1431      C1438   1.474       .  S
C1432      C1973   1.398       .  A
C1432      H1437   1.074       .  S
C1433      C1972   1.402       .  A
C1433      C1434   1.419       .  A
C1434      C1435   1.466       .  S
C1435      H1439   1.106       .  S
C1435      H1980   1.099       .  S
C1435      H1441   1.111       .  S
C1438      H1442   1.093       .  S
C1438      H1983   1.110       .  S
C1438      H1444   1.078   1_556  S
H1440      C1975   1.103       .  S
H1443      C1978   1.109       .  S
C1445      C1446   1.419       .  A
C1445      C1450   1.412       .  A
C1445      H1452   1.082       .  S
C1446      C1987   1.388       .  A
C1447      C1986   1.381       .  A
C1447      C1448   1.386       .  A
C1447      C1454   1.524   1_556  S
C1448      C1989   1.404       .  A
C1448      H1453   1.042       .  S
C1449      C1953   1.529       .  S
C1449      C1988   1.399       .  A
C1449      C1450   1.413       .  A
C1450      C1451   1.501       .  S
C1451      H1455   1.105       .  S
C1451      H1996   1.104       .  S
C1451      H1457   1.111       .  S
C1454      H1458   1.107       .  S
C1454      H1999   1.099       .  S
C1454      H1460   1.079       .  S
H1456      C1991   1.111       .  S
H1459      C1994   1.094       .  S
C1461      C1462   1.391   1_554  A
C1461      C1466   1.389   1_554  A
C1461      H1468   1.087       .  S
C1462      C2003   1.411       .  A
C1463      C2002   1.422       .  A
C1463      C1464   1.408       .  A
C1463      C1470   1.477       .  S
C1464      C2005   1.397       .  A
C1464      H1469   1.084       .  S
C1465      C1944   1.521       .  S
C1465      C2004   1.391       .  A
C1465      C1466   1.432       .  A
C1466      C1467   1.495   1_556  S
C1467      H1471   1.106   1_554  S
C1467      H1472   1.112       .  S
C1467      H1473   1.074   1_554  S
C1470      H1474   1.101       .  S
C1470      H1475   1.098       .  S
C1470      H1476   1.103       .  S
C1477      C1478   1.419       .  A
C1477      C1482   1.421       .  A
C1477      H1484   1.081       .  S
C1478      C1479   1.401       .  A
C1479      C1480   1.382       .  A
C1479      C1486   1.504       .  S
C1480      C1481   1.390       .  A
C1480      H1485   1.057       .  S
C1481      C1482   1.410       .  A
C1482      C1483   1.498       .  S
C1483      H1487   1.110       .  S
C1483      H2028   1.099       .  S
C1483      H1489   1.107       .  S
C1486      H2030   1.072       .  S
C1486      H1491   1.094       .  S
C1486      H1492   1.104       .  S
H1488      C2023   1.110       .  S
H1490      C2026   1.072       .  S
C1493      C1498   1.362       .  A
C1493      H1500   1.072       .  S
C1494      C1495   1.377       .  A
C1495      C1496   1.406       .  A
C1495      C1502   1.492       .  S
C1496      C1497   1.404       .  A
C1496      H1501   1.042       .  S
C1498      C1499   1.509       .  S
C1499      H1503   1.107       .  S
C1499      H1505   1.104       .  S
C1502      H1506   1.101       .  S
C1502      H1508   1.113       .  S
C1509      C1510   1.421       .  A
C1509      C1514   1.424       .  A
C1509      H1516   1.083       .  S
C1510      C3671   1.381       .  A
C1511      C3670   1.380       .  A
C1511      C1512   1.356       .  A
C1511      C1518   1.528       .  S
C1512      C3673   1.401       .  A
C1512      H1517   1.054       .  S
C1513      C3672   1.401       .  A
C1513      C1514   1.411       .  A
C1514      C1515   1.502       .  S
C1515      H1519   1.111       .  S
C1515      H1520   1.110       .  S
C1515      H1521   1.109       .  S
C1518      H1522   1.105       .  S
C1518      H1523   1.108       .  S
C1518      H1524   1.094       .  S
C1525      C1530   1.405       .  A
C1525      H1532   1.083       .  S
C1526      C1527   1.415       .  A
C1527      C1528   1.393       .  A
C1527      C1534   1.548       .  S
C1528      C1529   1.392       .  A
C1528      H1533   1.076       .  S
C1530      C1531   1.512       .  S
C1531      H1535   1.108       .  S
C1531      H1537   1.103       .  S
C1534      H1538   1.046       .  S
C1534      H1540   1.090       .  S
C1541      C1542   1.403       .  A
C1541      C1546   1.354       .  A
C1541      H1548   1.055       .  S
C1542      C3703   1.414       .  A
C1543      C3702   1.413       .  A
C1543      C1544   1.424       .  A
C1543      C1550   1.501       .  S
C1544      C3705   1.415       .  A
C1544      H1549   1.079       .  S
C1545      C3283   1.440       .  S
C1545      C3704   1.411       .  A
C1545      C1546   1.389       .  A
C1546      C1547   1.516       .  S
C1547      H1551   1.104       .  S
C1547      H1552   1.111       .  S
C1547      H1553   1.102       .  S
C1550      H1554   1.110       .  S
C1550      H1555   1.110       .  S
C1550      H1556   1.111       .  S
C1557      C1558   1.428       .  A
C1557      C1562   1.429       .  A
C1557      H1564   1.075       .  S
C1559      C1560   1.420       .  A
C1559      C1566   1.477       .  S
C1560      H1565   1.083       .  S
C1561      C1562   1.387       .  A
C1562      C1563   1.513       .  S
C1563      H1567   1.110       .  S
C1563      H1569   1.102       .  S
C1566      H1570   1.110       .  S
C1566      H1572   1.099       .  S
C1573      C1574   1.425       .  A
C1573      C1578   1.356   1_655  A
C1573      H1580   1.039   1_655  S
C1574      C3735   1.397       .  A
C1575      C3734   1.395       .  A
C1575      C1576   1.399       .  A
C1575      C1582   1.494       .  S
C1576      C3737   1.412       .  A
C1576      H1581   1.081       .  S
C1577      C3253   1.402   1_655  S
C1577      C3736   1.408       .  A
C1577      C1578   1.369   1_655  A
C1578      C1579   1.527       .  S
C1579      H1583   1.111       .  S
C1579      H1584   1.107       .  S
C1579      H1585   1.110       .  S
C1582      H1586   1.102       .  S
C1582      H1587   1.100       .  S
C1582      H1588   1.101       .  S
C1589      C1594   1.411       .  A
C1589      H1596   1.047       .  S
C1590      C1591   1.436       .  A
C1591      C1592   1.415       .  A
C1591      C1598   1.479       .  S
C1592      C1593   1.399       .  A
C1592      H1597   1.082       .  S
C1594      C1595   1.494       .  S
C1595      H1599   1.109       .  S
C1595      H1601   1.108       .  S
C1598      H1602   1.091       .  S
C1598      H1604   1.086       .  S
C1605      C1606   1.381       .  A
C1605      C1610   1.381       .  A
C1605      H1612   1.044       .  S
C1606      C3767   1.426       .  A
C1607      C3766   1.426       .  A
C1607      C1608   1.439       .  A
C1607      C1614   1.501       .  S
C1608      C3769   1.421       .  A
C1608      H1613   1.083       .  S
C1609      C3252   1.473       .  S
C1609      C3768   1.420       .  A
C1609      C1610   1.382       .  A
C1610      C1611   1.514       .  S
C1611      H1615   1.080       .  S
C1611      H1616   1.071   1_655  S
C1611      H1617   1.104   1_655  S
C1614      H1618   1.107       .  S
C1614      H1619   1.110       .  S
C1614      H1620   1.110       .  S
O1621      C1632   1.262       .  A
O1622      C1633   1.254       .  A
O1622     Zr3816   2.329       .  S
O1623      C1634   1.295       .  A
O1624      C1635   1.312       .  A
O1624     Zr3789   2.531       .  S
O1625      C1635   1.286       .  A
O1625     Zr1659   2.457       .  S
O1626      C1634   1.314       .  A
O1627      C1633   1.276       .  A
O1628      C1632   1.305       .  A
O1628     Zr1629   2.520       .  S
Zr1629     O3784   2.569       .  S
Zr1629     O2710   2.361       .  S
Zr1629     O1631   2.292       .  S
Zr1629     O3799   2.315       .  S
O1630     Zr2709   2.338   1_565  S
O1630     Zr1656   2.370       .  S
C1632      C4309   1.461       .  S
C1633      C4277   1.409       .  S
C1635      C2098   1.529       .  S
H1636      O1637   0.960       .  S
O1637     Zr3816   2.377       .  S
H1638      O1639   0.960       .  S
O1639     Zr3789   2.341       .  S
O1639     Zr3277   2.336   1_455  S
O1639     Zr1659   2.388       .  S
O1640      C1663   1.273       .  A
O1641      C1664   1.282       .  A
O1641     Zr3817   2.456   1_456  S
O1642      C1665   1.287       .  A
O1642     Zr1658   2.404   1_556  S
O1643      C1666   1.287       .  A
O1644      C1667   1.287       .  A
O1644     Zr1659   2.472       .  S
O1645      C1668   1.303       .  A
O1646      C1669   1.286       .  A
O1646     Zr3820   2.397       .  S
O1647      C1670   1.288       .  A
O1648      C1669   1.286       .  A
O1648     Zr1658   2.415   1_546  S
O1649      C1670   1.304       .  A
O1650     Zr3816   2.418       .  S
O1651      C1668   1.267       .  A
O1651     Zr1657   2.322   1_556  S
O1652     Zr3817   2.392   1_455  S
O1653      C1666   1.269       .  A
O1653     Zr1656   2.303       .  S
O1654      C1663   1.285       .  A
O1654     Zr1660   2.454   1_565  S
O1655      C1664   1.269       .  A
Zr1656     O3782   2.319       .  S
Zr1656     O3810   2.400   1_455  S
Zr1656     O3797   2.314   1_455  S
Zr1656     O3282   2.291   1_455  S
Zr1657     O3801   2.468   1_554  S
Zr1657     O3812   2.379       .  S
Zr1657     O3259   2.350       .  S
Zr1657     O3821   2.264   1_554  S
Zr1657     O1672   2.313   1_554  S
Zr1658     O1662   2.373   1_554  S
Zr1660     O3806   2.412   1_455  S
Zr1660     O3822   2.249   1_445  S
Zr1660     O1674   2.270   1_545  S
Zr1660     O2752   2.300   1_455  S
O1661     Zr3817   2.256   1_456  S
O1662     Zr3276   2.309       .  S
O1662     Zr3820   2.279   1_565  S
C1663      C4245   1.450       .  S
C1664      C2050   1.401       .  S
C1665      C1970   1.463       .  S
C1666      C2002   1.443       .  S
C1667      C2018   1.480       .  S
C1668      C1986   1.442       .  S
C1669      C2037   1.448       .  S
C1670      C2069   1.519       .  S
H1671      O1672   0.959       .  S
O1672     Zr2740   2.304       .  S
H1673      O1674   0.963       .  S
C1675      C1686   1.579       .  S
C1675      C1676   1.413   1_455  A
C1675      C1680   1.481       .  A
C1676      C1677   1.410       .  A
C1676      H1681   1.085       .  S
C1677      C2146   1.514       .  S
C1677      C1678   1.388       .  A
C1678      C1679   1.410   1_655  A
C1678      H1682   1.079       .  S
C1679      C1879   1.559       .  S
C1679      C1680   1.475       .  A
C1680      H1683   1.080       .  S
O1684      C3846   1.296       .  A
O1684     Zr1696   2.478       .  S
O1685      C1686   1.312       .  A
O1685     Zr1722   2.570       .  S
C1686      O3844   1.297   1_455  A
O1687     Zr1699   2.534       .  S
O1688      C1689   1.278       .  A
O1688     Zr1723   2.466       .  S
C1689      C1800   1.538       .  S
O1690      C3852   1.298       .  A
O1690     Zr1699   2.527       .  S
O1691      C1692   1.326       .  A
O1691     Zr1722   2.595       .  S
C1692      O3850   1.294   1_455  A
C1692      C1791   1.590       .  S
O1693     Zr1696   2.450       .  S
O1694      C1695   1.324       .  A
O1694     Zr1723   2.570       .  S
Zr1696     O1702   2.335       .  S
Zr1696     O1703   2.338       .  S
Zr1696     O3888   2.372       .  S
Zr1696     O1697   2.429       .  S
Zr1696     O1698   2.392       .  S
O1697      H1740   0.990       .  S
O1698      H1739   0.985       .  S
O1698      H1743   0.985       .  S
Zr1699     O1703   2.359       .  S
Zr1699     O1702   2.352       .  S
Zr1699     O3887   2.366       .  S
Zr1699     O1700   2.467       .  S
Zr1699     O1701   2.442       .  S
O1700      H1741   0.989       .  S
O1700      H1744   0.990       .  S
O1701      H1734   0.991       .  S
O1702     Zr3882   2.359       .  S
O1703      H1730   0.964       .  S
O1704      C3866   1.303   1_455  A
O1704     Zr1716   2.541       .  S
O1705      C1706   1.313       .  A
O1705     Zr1723   2.525       .  S
C1706      O3864   1.306       .  A
C1706      C3915   1.592       .  S
O1707     Zr1719   2.496       .  S
O1708      C1709   1.317       .  A
O1708     Zr1722   2.543       .  S
C1709      C1782   1.556       .  S
O1710      C3872   1.302       .  A
O1710     Zr1719   2.486   1_655  S
O1711      C1712   1.297       .  A
O1711     Zr1723   2.502       .  S
C1712      O3870   1.302       .  A
C1712      C1773   1.532       .  S
O1713     Zr1716   2.441       .  S
O1714      C1715   1.306       .  A
O1714     Zr1722   2.477       .  S
C1715      C1764   1.502       .  S
Zr1716     O1724   2.351       .  S
Zr1716     O1725   2.370       .  S
Zr1716     O3886   2.386   1_455  S
Zr1716     O1717   2.438       .  S
Zr1716     O1718   2.415       .  S
O1717      H1737   0.990       .  S
O1717      H1742   0.990       .  S
O1718      H1738   0.982       .  S
Zr1719     O1725   2.346       .  S
Zr1719     O1724   2.354       .  S
Zr1719     O3889   2.380   1_455  S
Zr1719     O1720   2.412       .  S
Zr1719     O1721   2.391       .  S
O1720      H1736   0.990       .  S
O1721      H1735   0.979       .  S
O1721      H1745   0.987       .  S
Zr1722     O3862   2.361   1_455  S
Zr1722     O1727   2.385       .  S
Zr1722     O1728   2.425       .  S
Zr1723     O3884   2.403       .  S
Zr1723     O1726   2.384       .  S
Zr1723     O1729   2.428       .  S
O1724     Zr3883   2.400   1_455  S
O1724      H1732   0.964       .  S
O1726     Zr3876   2.379       .  S
O1727     Zr3859   2.375   1_455  S
O1727      H1731   0.958       .  S
O1728     Zr3856   2.378   1_455  S
O1728      H1733   0.961       .  S
O1729     Zr3879   2.383       .  S
C1746      C1747   1.402       .  A
C1746      C1751   1.479       .  A
C1747      C1748   1.386       .  A
C1747      H1752   1.083       .  S
C1748      C2133   1.524       .  S
C1748      C1749   1.410       .  A
C1749      C1750   1.422       .  A
C1749      H1753   1.083       .  S
C1750      C1817   1.562       .  S
C1750      C1751   1.473       .  A
C1751      H1754   1.082       .  S
C1755      C3866   1.589       .  S
C1755      C1756   1.398       .  A
C1755      C1760   1.528       .  A
C1756      C1757   1.367       .  A
C1756      H1761   1.082       .  S
C1757      C2114   1.500       .  S
C1757      C1758   1.373       .  A
C1758      C1759   1.409       .  A
C1758      H1762   1.071       .  S
C1759      C1873   1.606       .  S
C1759      C1760   1.510       .  A
C1760      H1763   1.081   1_655  S
C1764      C1765   1.411       .  A
C1764      C1769   1.455       .  A
C1765      C1766   1.382       .  A
C1765      H1770   1.083       .  S
C1766      C2101   1.531       .  S
C1766      C1767   1.413       .  A
C1767      C1768   1.417       .  A
C1767      H1771   1.081       .  S
C1768      C1811   1.534       .  S
C1768      C1769   1.450       .  A
C1769      H1772   1.082       .  S
C1773      C1774   1.413       .  A
C1773      C1778   1.465       .  A
C1774      C1775   1.388       .  A
C1774      H1779   1.085       .  S
C1775      C2082   1.509       .  S
C1775      C1776   1.393       .  A
C1776      C1777   1.417       .  A
C1776      H1780   1.083       .  S
C1777      C1893   1.535       .  S
C1777      C1778   1.470       .  A
C1778      H1781   1.082       .  S
C1782      C1783   1.405       .  A
C1782      C1787   1.463       .  A
C1783      C1784   1.401       .  A
C1783      H1788   1.083       .  S
C1784      C2066   1.518       .  S
C1784      C1785   1.405       .  A
C1785      C1786   1.412       .  A
C1785      H1789   1.083       .  S
C1786      C1787   1.475       .  A
C1787      H1790   1.074       .  S
C1791      C1792   1.414       .  A
C1791      C1796   1.503   1_455  A
C1792      C1793   1.398       .  A
C1792      H1797   1.083       .  S
C1793      C2053   1.497       .  S
C1793      C1794   1.418       .  A
C1794      C1795   1.423   1_455  A
C1794      H1798   1.085       .  S
C1795      C4059   1.622       .  S
C1795      C1796   1.498       .  A
C1796      H1799   1.081       .  S
C1800      C1801   1.412   1_565  A
C1800      C1805   1.465       .  A
C1801      C1802   1.400       .  A
C1801      H1806   1.084       .  S
C1802      C2034   1.507       .  S
C1802      C1803   1.389       .  A
C1803      C1804   1.417   1_545  A
C1803      H1807   1.081       .  S
C1804      C1837   1.537       .  S
C1804      C1805   1.460       .  A
C1805      H1808   1.082       .  S
O1809     Zr1821   2.490       .  S
O1810      C1811   1.300       .  A
O1810     Zr1847   2.489       .  S
O1812     Zr1824   2.475       .  S
O1813      C1814   1.293       .  A
O1813     Zr1848   2.531       .  S
C1814      C1964   1.561       .  S
O1815     Zr1824   2.413       .  S
O1816      C1817   1.327       .  A
O1816     Zr1847   2.621       .  S
O1818     Zr1821   2.516       .  S
O1819      C1820   1.314       .  A
O1819     Zr1848   2.527       .  S
Zr1821     O1827   2.371       .  S
Zr1821     O1828   2.352       .  S
Zr1821     O1822   2.443       .  S
Zr1821     O1823   2.419       .  S
O1822      H1865   0.989       .  S
O1823      H1864   0.987       .  S
O1823      H1868   0.990       .  S
Zr1824     O1828   2.350       .  S
Zr1824     O1827   2.340       .  S
Zr1824     O1825   2.421       .  S
Zr1824     O1826   2.455       .  S
O1825      H1866   0.988       .  S
O1825      H1869   0.987       .  S
O1826      H1859   0.989       .  S
O1828      H1855   0.960       .  S
O1829     Zr1841   2.468       .  S
O1830      C1831   1.303       .  A
O1830     Zr1848   2.543       .  S
O1832     Zr1844   2.545       .  S
O1833      C1834   1.300       .  A
O1833     Zr1847   2.527       .  S
C1834      C1955   1.563       .  S
O1835     Zr1844   2.453       .  S
O1836      C1837   1.308       .  A
O1836     Zr1848   2.552       .  S
O1838     Zr1841   2.516       .  S
O1839      C1840   1.321       .  A
O1839     Zr1847   2.581       .  S
C1840      C1933   1.578       .  S
Zr1841     O1849   2.349       .  S
Zr1841     O1850   2.309       .  S
Zr1841     O1842   2.417       .  S
Zr1841     O1843   2.329       .  S
O1842      H1862   0.983       .  S
O1842      H1867   0.986       .  S
O1843      H1863   0.982       .  S
Zr1844     O1850   2.333       .  S
Zr1844     O1849   2.353       .  S
Zr1844     O1845   2.425       .  S
Zr1844     O1846   2.401       .  S
O1845      H1861   0.989       .  S
O1846      H1860   0.990       .  S
O1846      H1870   0.981       .  S
Zr1847     O1852   2.365       .  S
Zr1847     O1853   2.432       .  S
Zr1848     O1851   2.467       .  S
Zr1848     O1854   2.419       .  S
O1849      H1857   0.964       .  S
O1852      H1856   0.959       .  S
O1853      H1858   0.963       .  S
O1871      C4033   1.302       .  A
O1871     Zr1883   2.519       .  S
O1872      C1873   1.310   1_455  A
O1872     Zr1909   2.603       .  S
C1873      O4031   1.301       .  A
O1874     Zr1886   2.512       .  S
O1875      C1876   1.314       .  A
O1875     Zr1910   2.538       .  S
O1877      C4039   1.298       .  A
O1877     Zr1886   2.484       .  S
O1878      C1879   1.308       .  A
O1878     Zr1909   2.557       .  S
C1879      O4037   1.298   1_455  A
O1880     Zr1883   2.509       .  S
O1881      C1882   1.289       .  A
O1881     Zr1910   2.506       .  S
C1882      C1960   1.556       .  S
Zr1883     O1889   2.339       .  S
Zr1883     O1890   2.368       .  S
Zr1883     O4075   2.383       .  S
Zr1883     O1884   2.430       .  S
Zr1883     O1885   2.444       .  S
O1884      H1927   0.988       .  S
O1885      H1926   0.986       .  S
O1885      H1930   0.984       .  S
Zr1886     O1890   2.358       .  S
Zr1886     O1889   2.354       .  S
Zr1886     O4074   2.406       .  S
Zr1886     O1887   2.429       .  S
Zr1886     O1888   2.383       .  S
O1887      H1928   0.989       .  S
O1887      H1931   0.989       .  S
O1888      H1921   0.986       .  S
O1889     Zr4069   2.407       .  S
O1890      H1917   0.964       .  S
O1891      C4053   1.303       .  A
O1891     Zr1903   2.501   1_655  S
O1892      C1893   1.296       .  A
O1892     Zr1910   2.498       .  S
C1893      O4051   1.303       .  A
O1894     Zr1906   2.546       .  S
O1895      C1896   1.317       .  A
O1895     Zr1909   2.547       .  S
C1896      C1937   1.564       .  S
O1897      C4059   1.301   1_455  A
O1897     Zr1906   2.566       .  S
O1898      C1899   1.301       .  A
O1898     Zr1910   2.571       .  S
C1899      O4057   1.302       .  A
C1899      C3955   1.620       .  S
O1900     Zr1903   2.467       .  S
O1901      C1902   1.296       .  A
O1901     Zr1909   2.537       .  S
C1902      C1946   1.563       .  S
Zr1903     O1911   2.302       .  S
Zr1903     O1912   2.365       .  S
Zr1903     O4073   2.370   1_455  S
Zr1903     O1904   2.446       .  S
Zr1903     O1905   2.451       .  S
O1904      H1924   0.988       .  S
O1904      H1929   0.989       .  S
O1905      H1925   0.989       .  S
Zr1906     O1912   2.353       .  S
Zr1906     O1911   2.364       .  S
Zr1906     O4076   2.416   1_455  S
Zr1906     O1907   2.443       .  S
Zr1906     O1908   2.385       .  S
O1907      H1923   0.990       .  S
O1908      H1922   0.985       .  S
O1908      H1932   0.987       .  S
Zr1909     O4049   2.403   1_455  S
Zr1909     O1914   2.404       .  S
Zr1909     O1915   2.461       .  S
Zr1910     O4071   2.432       .  S
Zr1910     O1913   2.415       .  S
Zr1910     O1916   2.421       .  S
O1911     Zr4070   2.414   1_455  S
O1911      H1919   0.958       .  S
O1913     Zr4063   2.363       .  S
O1914     Zr4046   2.399   1_455  S
O1914      H1918   0.964       .  S
O1915     Zr4043   2.391   1_455  S
O1915      H1920   0.964       .  S
O1916     Zr4066   2.412       .  S
C1933      C1934   1.418       .  A
C1933      C1938   1.485       .  A
C1934      C1935   1.411       .  A
C1934      H1939   1.081       .  S
C1935      C2021   1.518       .  S
C1935      C1936   1.385       .  A
C1936      C1937   1.402       .  A
C1936      H1940   1.082       .  S
C1937      C1938   1.475       .  A
C1938      H1941   1.082       .  S
C1942      C1943   1.409       .  A
C1942      C1947   1.495       .  A
C1945      C1946   1.414       .  A
C1945      H1949   1.079       .  S
C1946      C1947   1.489       .  A
C1947      H1950   1.082       .  S
C1951      C1952   1.411       .  A
C1951      C1956   1.478       .  A
C1952      C1953   1.386       .  A
C1952      H1957   1.082       .  S
C1953      C1954   1.404       .  A
C1954      C1955   1.425       .  A
C1954      H1958   1.083       .  S
C1955      C1956   1.482       .  A
C1956      H1959   1.081       .  S
C1960      C1961   1.410   1_556  A
C1960      C1965   1.496       .  A
C1961      C1962   1.380       .  A
C1961      H1966   1.078       .  S
C1962      C1973   1.534       .  S
C1962      C1963   1.384       .  A
C1963      C1964   1.418   1_554  A
C1963      H1967   1.080       .  S
C1964      C1965   1.497       .  A
C1965      H1968   1.081       .  S
C1969      C1970   1.382       .  A
C1969      C1974   1.393       .  A
C1969      H1976   1.087       .  S
C1971      C1972   1.400       .  A
C1971      C1978   1.476       .  S
C1972      H1977   1.071       .  S
C1973      C1974   1.410   1_554  A
C1974      C1975   1.459   1_556  S
C1975      H1979   1.105       .  S
C1975      H1981   1.111   1_554  S
C1978      H1982   1.099       .  S
C1978      H1984   1.076       .  S
C1985      C1986   1.414       .  A
C1985      C1990   1.409       .  A
C1985      H1992   1.078       .  S
C1987      C1988   1.395       .  A
C1987      C1994   1.513       .  S
C1988      H1993   1.048       .  S
C1989      C1990   1.417       .  A
C1990      C1991   1.502       .  S
C1991      H1995   1.105       .  S
C1991      H1997   1.110       .  S
C1994      H1998   1.107       .  S
C1994      H2000   1.077       .  S
C2001      C2002   1.387       .  A
C2001      C2006   1.381       .  A
C2001      H2008   1.087       .  S
C2003      C2004   1.401       .  A
C2003      C2010   1.461       .  S
C2004      H2009   1.083       .  S
C2005      C2006   1.425       .  A
C2006      C2007   1.485       .  S
C2007      H2011   1.099       .  S
C2007      H2012   1.109       .  S
C2007      H2013   1.076       .  S
C2010      H2014   1.098       .  S
C2010      H2015   1.104       .  S
C2010      H2016   1.102       .  S
C2017      C2018   1.419       .  A
C2017      C2022   1.430       .  A
C2017      H2024   1.073       .  S
C2018      C2019   1.408       .  A
C2019      C2020   1.391       .  A
C2019      C2026   1.497       .  S
C2020      C2021   1.385       .  A
C2020      H2025   1.077       .  S
C2021      C2022   1.421       .  A
C2022      C2023   1.498       .  S
C2023      H2027   1.111       .  S
C2023      H2029   1.107       .  S
C2026      H2031   1.091       .  S
C2026      H2032   1.101       .  S
C2033      C2038   1.374       .  A
C2033      H2040   1.058       .  S
C2034      C2035   1.403       .  A
C2035      C2036   1.423       .  A
C2035      C2042   1.498       .  S
C2036      C2037   1.419       .  A
C2036      H2041   1.061       .  S
C2038      C2039   1.518       .  S
C2039      H2043   1.107       .  S
C2039      H2045   1.103       .  S
C2042      H2046   1.100       .  S
C2042      H2048   1.105       .  S
C2049      C2050   1.437       .  A
C2049      C2054   1.433       .  A
C2049      H2056   1.072       .  S
C2050      C4211   1.373       .  A
C2051      C4210   1.371       .  A
C2051      C2052   1.337       .  A
C2051      C2058   1.527       .  S
C2052      C4213   1.379       .  A
C2052      H2057   1.080       .  S
C2053      C4212   1.375       .  A
C2053      C2054   1.408       .  A
C2054      C2055   1.490       .  S
C2055      H2059   1.103       .  S
C2055      H2060   1.111       .  S
C2055      H2061   1.109       .  S
C2058      H2062   1.106       .  S
C2058      H2063   1.107       .  S
C2058      H2064   1.101       .  S
C2065      C2070   1.423       .  A
C2065      H2072   1.082       .  S
C2066      C2067   1.400       .  A
C2067      C2068   1.419       .  A
C2067      C2074   1.500       .  S
C2068      C2069   1.424       .  A
C2068      H2073   1.079       .  S
C2070      C2071   1.509       .  S
C2071      H2075   1.108       .  S
C2071      H2077   1.104       .  S
C2074      H2078   1.108       .  S
C2074      H2080   1.109       .  S
C2081      C2082   1.410       .  A
C2081      C2086   1.363       .  A
C2081      H2088   1.052       .  S
C2082      C4243   1.413       .  A
C2083      C4242   1.414       .  A
C2083      C2084   1.426       .  A
C2083      C2090   1.500       .  S
C2084      C4245   1.412       .  A
C2084      H2089   1.081       .  S
C2085      C3823   1.447       .  S
C2085      C4244   1.410       .  A
C2085      C2086   1.383       .  A
C2086      C2087   1.513       .  S
C2087      H2091   1.111       .  S
C2087      H2092   1.105       .  S
C2087      H2093   1.102       .  S
C2090      H2094   1.110       .  S
C2090      H2095   1.110       .  S
C2090      H2096   1.111       .  S
C2097      C2098   1.423       .  A
C2097      C2102   1.422       .  A
C2097      H2104   1.074       .  S
C2099      C2100   1.420       .  A
C2099      C2106   1.477       .  S
C2100      H2105   1.083       .  S
C2101      C2102   1.387       .  A
C2102      C2103   1.507       .  S
C2103      H2107   1.089       .  S
C2103      H2109   1.105       .  S
C2106      H2110   1.110       .  S
C2106      H2112   1.096       .  S
C2113      C2114   1.425       .  A
C2113      C2118   1.362   1_655  A
C2113      H2120   1.044   1_655  S
C2114      C4275   1.393       .  A
C2115      C4274   1.393       .  A
C2115      C2116   1.399       .  A
C2115      C2122   1.492       .  S
C2116      C4277   1.411       .  A
C2116      H2121   1.080       .  S
C2117      C3793   1.413   1_655  S
C2117      C4276   1.410       .  A
C2117      C2118   1.374   1_655  A
C2118      C2119   1.525       .  S
C2119      H2123   1.111       .  S
C2119      H2124   1.108       .  S
C2119      H2125   1.111       .  S
C2122      H2126   1.100       .  S
C2122      H2127   1.098       .  S
C2122      H2128   1.101       .  S
C2129      C2134   1.416       .  A
C2129      H2136   1.055       .  S
C2130      C2131   1.430       .  A
C2131      C2132   1.417       .  A
C2131      C2138   1.487       .  S
C2132      C2133   1.405       .  A
C2132      H2137   1.082       .  S
C2134      C2135   1.492       .  S
C2135      H2139   1.107       .  S
C2135      H2141   1.107       .  S
C2138      H2142   1.092       .  S
C2138      H2144   1.095       .  S
C2145      C2146   1.384       .  A
C2145      C2150   1.384       .  A
C2145      H2152   1.081       .  S
C2146      C4307   1.434       .  A
C2147      C4306   1.433       .  A
C2147      C2148   1.445       .  A
C2147      C2154   1.500       .  S
C2148      C4309   1.431       .  A
C2148      H2153   1.083       .  S
C2149      C3792   1.460       .  S
C2149      C4308   1.431       .  A
C2149      C2150   1.384       .  A
C2150      C2151   1.521       .  S
C2151      H2155   1.071   1_655  S
C2151      H2156   1.101       .  S
C2151      H2157   1.104       .  S
C2154      H2158   1.105       .  S
C2154      H2159   1.110       .  S
C2154      H2160   1.111       .  S
O2161      C2172   1.271       .  A
O2161     Zr2737   2.443   1_655  S
O2162      C2173   1.252       .  A
O2163      C2174   1.299       .  A
O2163     Zr3249   2.461   1_655  S
O2164      C2175   1.323       .  A
O2165      C2175   1.282       .  A
O2165     Zr2199   2.437       .  S
O2166      C2174   1.314       .  A
O2166     Zr2738   2.539       .  S
O2167      C2173   1.281       .  A
O2167     Zr3249   2.443       .  S
O2168      C2172   1.302       .  A
O2168     Zr2169   2.488   1_655  S
Zr2169     O3243   2.397   1_445  S
Zr2169     O3247   2.441   1_545  S
Zr2169     O2171   2.313   1_455  S
Zr2169     O3257   2.338   1_445  S
O2170     Zr2196   2.378   1_554  S
O2170     Zr3279   2.366       .  S
O2171     Zr2737   2.280   1_655  S
O2171     Zr3818   2.282   1_554  S
C2174      C3750   1.538       .  S
C2175      C2638   1.531       .  S
H2176      O2177   0.956       .  S
O2177     Zr3249   2.336   1_655  S
O2177     Zr2738   2.298       .  S
H2178      O2179   0.959       .  S
O2179     Zr2199   2.382       .  S
O2180      C2203   1.268       .  A
O2180     Zr2736   2.356       .  S
O2181      C2204   1.283       .  A
O2182      C2205   1.288       .  A
O2182     Zr2198   2.405       .  S
O2183      C2206   1.282       .  A
O2183     Zr3279   2.433   1_556  S
O2184      C2207   1.278       .  A
O2184     Zr2199   2.468       .  S
O2185      C2208   1.294       .  A
O2185     Zr3278   2.438       .  S
O2186      C2209   1.291       .  A
O2187      C2210   1.285       .  A
O2187     Zr3280   2.413       .  S
O2188      C2209   1.280       .  A
O2188     Zr2198   2.382       .  S
O2189      C2210   1.306       .  A
O2189     Zr2739   2.555       .  S
O2190      C2745   1.284       .  A
O2191      C2208   1.270       .  A
O2191     Zr2197   2.368   1_655  S
O2192      C2747   1.273       .  A
O2193      C2206   1.273       .  A
O2193     Zr2196   2.335       .  S
O2194      C2203   1.281       .  A
O2194     Zr2200   2.409       .  S
O2195      C2204   1.273       .  A
O2195     Zr3280   2.308       .  S
Zr2196     O2720   2.365       .  S
Zr2196     O2754   2.283       .  S
Zr2197     O2701   2.430   1_455  S
Zr2197     O2711   2.294   1_455  S
Zr2197     O2212   2.340   1_455  S
Zr2198     O2706   2.544       .  S
Zr2198     O3265   2.478       .  S
Zr2198     O3791   2.275       .  S
Zr2198     O2717   2.283       .  S
Zr2198     O2202   2.370       .  S
Zr2198     O3292   2.313       .  S
Zr2199     O3263   2.474   1_544  S
Zr2199     O2729   2.497   1_554  S
Zr2199     O3250   2.350   1_545  S
Zr2199     O2741   2.264   1_554  S
Zr2199     O3834   2.337   1_544  S
Zr2200     O3267   2.368       .  S
Zr2200     O3275   2.282       .  S
Zr2200     O3281   2.308       .  S
Zr2200     O2214   2.263       .  S
O2201     Zr2739   2.238       .  S
O2201     Zr3280   2.304       .  S
C2204      C2590   1.405       .  S
C2205      O2730   1.281       .  A
C2205      C2510   1.463       .  S
C2206      C2542   1.442       .  S
C2207      O2732   1.269       .  A
C2207      C2558   1.460       .  S
C2208      C2526   1.455       .  S
C2209      C2577   1.442       .  S
C2210      C2609   1.518       .  S
H2211      O2212   0.959       .  S
O2212     Zr3278   2.359       .  S
H2213      O2214   0.963       .  S
O2214     Zr2736   2.304       .  S
O2214     Zr3819   2.343       .  S
C2215      C2226   1.580       .  S
C2215      C2216   1.411       .  A
C2215      C2220   1.482       .  A
C2216      C2217   1.409       .  A
C2216      H2221   1.086       .  S
C2217      C2686   1.514       .  S
C2217      C2218   1.390       .  A
C2218      C2219   1.412       .  A
C2218      H2222   1.079       .  S
C2219      C2419   1.565       .  S
C2219      C2220   1.477       .  A
C2220      H2223   1.079       .  S
O2224     Zr2236   2.492       .  S
O2225      C2226   1.310       .  A
O2225     Zr2262   2.564       .  S
O2227      C3309   1.311       .  A
O2227     Zr2239   2.517   1_565  S
O2228      C2229   1.276       .  A
O2228     Zr2263   2.455       .  S
C2229      O3307   1.296       .  A
C2229      C2340   1.531       .  S
O2230     Zr2239   2.514       .  S
O2231      C2232   1.324       .  A
O2231     Zr2262   2.586       .  S
C2232      C2331   1.585       .  S
O2233      C3315   1.286   1_545  A
O2233     Zr2236   2.450       .  S
O2234      C2235   1.329       .  A
O2234     Zr2263   2.594       .  S
C2235      O3313   1.284       .  A
C2235      C3366   1.539       .  S
Zr2236     O2242   2.330       .  S
Zr2236     O2243   2.348       .  S
Zr2236     O3346   2.410   1_545  S
Zr2236     O2237   2.439       .  S
Zr2236     O2238   2.407       .  S
O2237      H2280   0.990       .  S
O2238      H2279   0.983       .  S
O2238      H2283   0.984       .  S
Zr2239     O2243   2.345       .  S
Zr2239     O2242   2.352       .  S
Zr2239     O3349   2.403   1_545  S
Zr2239     O2240   2.434       .  S
Zr2239     O2241   2.371       .  S
O2240      H2281   0.989       .  S
O2240      H2284   0.986       .  S
O2241      H2274   0.986       .  S
O2243     Zr3343   2.401   1_545  S
O2243      H2270   0.964       .  S
O2244     Zr2256   2.546       .  S
O2245      C2246   1.314       .  A
O2245     Zr2263   2.525       .  S
O2247      C3329   1.292       .  A
O2247     Zr2259   2.490       .  S
O2248      C2249   1.314   1_545  A
O2248     Zr2262   2.532       .  S
C2249      O3327   1.292       .  A
C2249      C2322   1.546   1_565  S
O2250     Zr2259   2.491       .  S
O2251      C2252   1.300       .  A
O2251     Zr2263   2.513       .  S
C2252      C2313   1.537       .  S
O2253      C3335   1.285       .  A
O2253     Zr2256   2.441       .  S
O2254      C2255   1.307       .  A
O2254     Zr2262   2.485       .  S
C2255      O3333   1.287   1_545  A
C2255      C2304   1.509       .  S
Zr2256     O2264   2.352       .  S
Zr2256     O2265   2.374       .  S
Zr2256     O3348   2.424       .  S
Zr2256     O2257   2.439       .  S
Zr2256     O2258   2.422       .  S
O2257      H2277   0.990       .  S
O2257      H2282   0.990       .  S
O2258      H2278   0.984       .  S
Zr2259     O2265   2.334       .  S
Zr2259     O2264   2.351       .  S
Zr2259     O3347   2.401       .  S
Zr2259     O2260   2.420       .  S
Zr2259     O2261   2.350       .  S
O2260      H2276   0.990       .  S
O2261      H2275   0.985       .  S
O2261      H2285   0.988       .  S
Zr2262     O3345   2.418   1_545  S
Zr2262     O2267   2.393       .  S
Zr2262     O2268   2.417       .  S
Zr2263     O3323   2.423       .  S
Zr2263     O2266   2.382       .  S
Zr2263     O2269   2.438       .  S
O2264      H2272   0.965       .  S
O2265     Zr3342   2.404       .  S
O2266     Zr3316   2.412       .  S
O2267     Zr3339   2.404   1_545  S
O2267      H2271   0.959       .  S
O2268     Zr3336   2.422   1_545  S
O2268      H2273   0.960       .  S
O2269     Zr3319   2.415       .  S
C2286      C3315   1.547       .  S
C2286      C2287   1.407       .  A
C2286      C2291   1.482       .  A
C2287      C2288   1.390       .  A
C2287      H2292   1.083       .  S
C2288      C2673   1.525       .  S
C2288      C2289   1.401       .  A
C2289      C2290   1.422       .  A
C2289      H2293   1.082       .  S
C2290      C2357   1.558       .  S
C2290      C2291   1.473       .  A
C2291      H2294   1.082   1_565  S
C2295      C2296   1.399       .  A
C2295      C2300   1.523       .  A
C2296      C2297   1.369       .  A
C2296      H2301   1.082       .  S
C2297      C2654   1.501       .  S
C2297      C2298   1.372       .  A
C2298      C2299   1.410       .  A
C2298      H2302   1.072       .  S
C2299      C2413   1.596       .  S
C2299      C2300   1.506       .  A
C2300      H2303   1.082       .  S
C2304      C2305   1.412       .  A
C2304      C2309   1.458   1_545  A
C2305      C2306   1.384       .  A
C2305      H2310   1.083       .  S
C2306      C2641   1.531       .  S
C2306      C2307   1.412       .  A
C2307      C2308   1.412       .  A
C2307      H2311   1.080       .  S
C2308      C2351   1.537   1_545  S
C2308      C2309   1.454   1_545  A
C2309      H2312   1.082       .  S
C2313      C2314   1.413   1_655  A
C2313      C2318   1.468       .  A
C2314      C2315   1.387       .  A
C2314      H2319   1.085       .  S
C2315      C2622   1.510       .  S
C2315      C2316   1.393       .  A
C2316      C2317   1.417   1_455  A
C2316      H2320   1.083       .  S
C2317      C2433   1.542       .  S
C2317      C2318   1.473       .  A
C2318      H2321   1.082       .  S
C2322      C2323   1.407       .  A
C2322      C2327   1.460   1_545  A
C2323      C2324   1.400       .  A
C2323      H2328   1.083       .  S
C2324      C2606   1.519       .  S
C2324      C2325   1.404       .  A
C2325      C2326   1.411   1_545  A
C2325      H2329   1.084       .  S
C2326      C3451   1.542       .  S
C2326      C2327   1.464       .  A
C2327      H2330   1.078       .  S
C2331      C2332   1.413       .  A
C2331      C2336   1.499       .  A
C2332      C2333   1.398       .  A
C2332      H2337   1.083       .  S
C2333      C2593   1.496       .  S
C2333      C2334   1.419       .  A
C2334      C2335   1.423       .  A
C2334      H2338   1.085       .  S
C2335      C2336   1.494       .  A
C2336      H2339   1.082       .  S
C2340      C2341   1.414       .  A
C2340      C2345   1.461       .  A
C2341      C2342   1.401       .  A
C2341      H2346   1.083       .  S
C2342      C2574   1.506       .  S
C2342      C2343   1.387       .  A
C2343      C2344   1.417       .  A
C2343      H2347   1.081       .  S
C2344      C2377   1.527       .  S
C2344      C2345   1.457       .  A
C2345      H2348   1.082       .  S
O2349      C3431   1.289       .  A
O2349     Zr2361   2.482       .  S
O2350      C2351   1.306   1_545  A
O2350     Zr2387   2.512       .  S
C2351      O3429   1.289       .  A
O2352      C2894   1.293       .  A
O2352     Zr2364   2.490   1_556  S
O2353      C2354   1.299       .  A
O2353     Zr2388   2.556       .  S
C2354      O2892   1.291       .  A
C2354      C2504   1.572       .  S
O2355      C3437   1.288       .  A
O2355     Zr2364   2.431       .  S
O2356      C2357   1.325   1_545  A
O2356     Zr2387   2.619       .  S
C2357      O3435   1.286       .  A
O2358      C2900   1.297   1_554  A
O2358     Zr2361   2.510       .  S
O2359      C2360   1.317       .  A
O2359     Zr2388   2.537       .  S
C2360      O2898   1.294       .  A
C2360      C3022   1.555       .  S
Zr2361     O2367   2.374       .  S
Zr2361     O2368   2.354       .  S
Zr2361     O2931   2.428   1_554  S
Zr2361     O3473   2.409       .  S
Zr2361     O2362   2.442       .  S
Zr2361     O2363   2.421       .  S
O2362      H2405   0.989       .  S
O2363      H2404   0.988       .  S
O2363      H2408   0.990       .  S
Zr2364     O2368   2.358       .  S
Zr2364     O2367   2.342       .  S
Zr2364     O3472   2.365       .  S
Zr2364     O2934   2.367   1_554  S
Zr2364     O2365   2.415       .  S
Zr2364     O2366   2.463       .  S
O2365      H2406   0.988       .  S
O2365      H2409   0.987       .  S
O2366      H2399   0.989       .  S
O2367     Zr3467   2.380       .  S
O2368     Zr2928   2.402   1_554  S
O2368      H2395   0.961       .  S
O2369      C3451   1.296   1_545  A
O2369     Zr2381   2.475       .  S
O2370      C2371   1.314       .  A
O2370     Zr2388   2.588       .  S
C2371      O3449   1.301       .  A
C2371      C3406   1.587       .  S
O2372      C2914   1.306       .  A
O2372     Zr2384   2.534       .  S
O2373      C2374   1.299       .  A
O2373     Zr2387   2.517       .  S
C2374      O2912   1.305   1_554  A
C2374      C2495   1.555   1_554  S
O2375      C3457   1.298       .  A
O2375     Zr2384   2.486   1_565  S
O2376      C2377   1.304       .  A
O2376     Zr2388   2.530       .  S
C2377      O3455   1.293       .  A
O2378      C2920   1.297       .  A
O2378     Zr2381   2.501       .  S
O2379      C2380   1.320       .  A
O2379     Zr2387   2.564       .  S
C2380      O2918   1.299   1_554  A
C2380      C2473   1.576       .  S
Zr2381     O2389   2.338       .  S
Zr2381     O2390   2.302       .  S
Zr2381     O2933   2.393       .  S
Zr2381     O3471   2.428   1_545  S
Zr2381     O2382   2.423       .  S
Zr2381     O2383   2.325       .  S
O2382      H2402   0.984       .  S
O2382      H2407   0.987       .  S
O2383      H2403   0.985       .  S
Zr2384     O2390   2.350       .  S
Zr2384     O2389   2.357       .  S
Zr2384     O3474   2.378   1_545  S
Zr2384     O2932   2.381       .  S
Zr2384     O2385   2.444       .  S
Zr2384     O2386   2.433       .  S
O2385      H2401   0.989       .  S
O2386      H2400   0.988   1_545  S
O2386      H2410   0.988       .  S
Zr2387     O3447   2.369   1_545  S
Zr2387     O2930   2.390   1_554  S
Zr2387     O2392   2.379       .  S
Zr2387     O2393   2.426       .  S
Zr2388     O2908   2.418       .  S
Zr2388     O3469   2.403       .  S
Zr2388     O2391   2.462       .  S
Zr2388     O2394   2.423       .  S
O2389     Zr3468   2.413   1_545  S
O2389      H2397   0.962       .  S
O2390     Zr2927   2.379       .  S
O2391     Zr2901   2.436       .  S
O2391     Zr3461   2.430       .  S
O2392     Zr3444   2.347   1_545  S
O2392     Zr2924   2.376   1_554  S
O2392      H2396   0.961       .  S
O2393     Zr3441   2.417   1_545  S
O2393     Zr2921   2.410   1_554  S
O2393      H2398   0.960       .  S
O2394     Zr2904   2.367       .  S
O2394     Zr3464   2.375       .  S
O2411     Zr2423   2.509       .  S
O2412      C2413   1.307       .  A
O2412     Zr2449   2.587       .  S
O2414      C2956   1.298   1_554  A
O2414     Zr2426   2.516       .  S
O2415      C2416   1.309       .  A
O2415     Zr2450   2.511       .  S
C2416      O2954   1.296       .  A
C2416      C3031   1.547       .  S
O2417     Zr2426   2.497       .  S
O2418      C2419   1.311       .  A
O2418     Zr2449   2.564       .  S
O2420      C2962   1.303   1_554  A
O2420     Zr2423   2.515       .  S
O2421      C2422   1.294       .  A
O2421     Zr2450   2.527       .  S
C2422      O2960   1.301       .  A
C2422      C2500   1.566       .  S
Zr2423     O2429   2.335       .  S
Zr2423     O2430   2.364       .  S
Zr2423     O2993   2.400   1_554  S
Zr2423     O2424   2.433       .  S
Zr2423     O2425   2.416       .  S
O2424      H2467   0.989       .  S
O2425      H2466   0.987       .  S
O2425      H2470   0.970       .  S
Zr2426     O2430   2.348       .  S
Zr2426     O2429   2.346       .  S
Zr2426     O2996   2.433   1_554  S
Zr2426     O2427   2.422       .  S
Zr2426     O2428   2.366       .  S
O2427      H2468   0.989       .  S
O2427      H2471   0.989       .  S
O2428      H2461   0.987       .  S
O2430     Zr2990   2.438   1_554  S
O2430      H2457   0.964       .  S
O2431     Zr2443   2.489       .  S
O2432      C2433   1.296       .  A
O2432     Zr2450   2.509       .  S
O2434      C2976   1.300       .  A
O2434     Zr2446   2.531       .  S
O2435      C2436   1.316       .  A
O2435     Zr2449   2.538       .  S
C2436      O2974   1.300   1_554  A
C2436      C2477   1.561       .  S
O2437     Zr2446   2.548       .  S
O2438      C2439   1.315       .  A
O2438     Zr2450   2.584       .  S
O2440      C2982   1.292       .  A
O2440     Zr2443   2.464       .  S
O2441      C2442   1.297       .  A
O2441     Zr2449   2.540       .  S
C2442      O2980   1.293   1_554  A
C2442      C2486   1.564   1_554  S
Zr2443     O2451   2.332       .  S
Zr2443     O2452   2.356       .  S
Zr2443     O2995   2.393       .  S
Zr2443     O2444   2.437       .  S
Zr2443     O2445   2.439       .  S
O2444      H2464   0.989       .  S
O2444      H2469   0.988       .  S
O2445      H2465   0.989       .  S
Zr2446     O2452   2.353       .  S
Zr2446     O2451   2.352       .  S
Zr2446     O2994   2.399       .  S
Zr2446     O2447   2.443       .  S
Zr2446     O2448   2.385       .  S
O2447      H2463   0.990       .  S
O2448      H2462   0.984       .  S
O2448      H2472   0.986       .  S
Zr2449     O2992   2.427   1_554  S
Zr2449     O2454   2.396       .  S
Zr2449     O2455   2.465       .  S
Zr2450     O2970   2.442       .  S
Zr2450     O2453   2.401       .  S
Zr2450     O2456   2.408       .  S
O2451      H2459   0.960       .  S
O2452     Zr2989   2.426       .  S
O2453     Zr2963   2.402       .  S
O2454     Zr2986   2.408   1_554  S
O2454      H2458   0.967       .  S
O2455     Zr2983   2.412   1_554  S
O2455      H2460   0.964       .  S
O2456     Zr2966   2.412       .  S
C2473      C2474   1.425       .  A
C2473      C2478   1.484       .  A
C2474      C2475   1.411       .  A
C2474      H2479   1.082       .  S
C2475      C2561   1.524       .  S
C2475      C2476   1.389       .  A
C2476      C2477   1.409       .  A
C2476      H2480   1.080       .  S
C2477      C2478   1.477       .  A
C2478      H2481   1.081   1_554  S
C2482      C2900   1.562       .  S
C2482      C2483   1.409       .  A
C2482      C2487   1.496   1_556  A
C2483      C3024   1.385       .  A
C2483      H3028   1.082       .  S
C2484      C3085   1.518       .  S
C2484      C3023   1.384       .  A
C2484      C3025   1.375       .  A
C2485      C3024   1.380       .  A
C2485      C2486   1.412       .  A
C2485      H2489   1.080       .  S
C2486      C2487   1.490   1_556  A
C2487      H2490   1.081       .  S
H2488      C3023   1.083       .  S
C2491      C2956   1.553       .  S
C2491      C2492   1.410       .  A
C2491      C2496   1.473   1_556  A
C2492      C2493   1.389       .  A
C2492      H2497   1.081       .  S
C2493      C3069   1.528       .  S
C2493      C2494   1.401       .  A
C2494      C2495   1.425       .  A
C2494      H2498   1.083       .  S
C2495      C2496   1.477   1_556  A
C2496      H2499   1.080       .  S
C2500      C2501   1.409       .  A
C2500      C2505   1.502       .  A
C2501      C2502   1.380       .  A
C2501      H2506   1.078       .  S
C2502      C2513   1.534       .  S
C2502      C2503   1.384       .  A
C2503      C2504   1.420       .  A
C2503      H2507   1.081       .  S
C2504      C2505   1.503       .  A
C2505      H2508   1.081       .  S
C2509      C2510   1.383       .  A
C2509      C2514   1.392       .  A
C2509      H2516   1.086       .  S
C2510      C3051   1.391       .  A
C2511      C3050   1.389       .  A
C2511      C2512   1.401   1_556  A
C2511      C2518   1.465       .  S
C2512      C3053   1.399       .  A
C2512      H2517   1.073       .  S
C2513      C3052   1.401       .  A
C2513      C2514   1.412       .  A
C2514      C2515   1.462       .  S
C2515      H2519   1.106       .  S
C2515      H3060   1.103       .  S
C2515      H2521   1.111       .  S
C2518      H2522   1.102   1_556  S
C2518      H3063   1.108       .  S
C2518      H2524   1.068   1_556  S
H2520      C3055   1.100       .  S
H2523      C3058   1.110       .  S
C2525      C2526   1.415       .  A
C2525      C2530   1.413       .  A
C2525      H2532   1.083       .  S
C2526      C3067   1.386       .  A
C2527      C3066   1.387       .  A
C2527      C2528   1.392       .  A
C2527      C2534   1.525   1_556  S
C2528      C3069   1.406       .  A
C2528      H2533   1.051       .  S
C2529      C3033   1.529       .  S
C2529      C3068   1.405       .  A
C2529      C2530   1.418       .  A
C2530      C2531   1.506       .  S
C2531      H2535   1.109       .  S
C2531      H3076   1.105       .  S
C2531      H2537   1.111       .  S
C2534      H2538   1.106       .  S
C2534      H3079   1.100       .  S
C2534      H2540   1.085       .  S
H2536      C3071   1.104       .  S
H2539      C3074   1.100       .  S
C2541      C2542   1.384       .  A
C2541      C2546   1.382       .  A
C2541      H2548   1.087   1_556  S
C2542      C3083   1.417       .  A
C2543      C3082   1.412       .  A
C2543      C2544   1.400       .  A
C2543      C2550   1.460       .  S
C2544      C3085   1.393       .  A
C2544      H2549   1.084       .  S
C2545      C3024   1.513       .  S
C2545      C3084   1.396       .  A
C2545      C2546   1.428       .  A
C2546      C2547   1.489   1_556  S
C2547      H2551   1.098       .  S
C2547      H2552   1.109       .  S
C2547      H2553   1.079   1_554  S
C2550      H2554   1.101       .  S
C2550      H2555   1.107       .  S
C2550      H2556   1.108       .  S
C2557      C2558   1.415       .  A
C2557      C2562   1.416       .  A
C2557      H2564   1.080       .  S
C2558      C2559   1.402       .  A
C2559      C2560   1.375       .  A
C2559      C2566   1.515       .  S
C2560      C2561   1.394       .  A
C2560      H2565   1.055       .  S
C2561      C2562   1.413       .  A
C2562      C2563   1.501       .  S
C2563      H2567   1.110       .  S
C2563      H3108   1.104       .  S
C2563      H2569   1.107       .  S
C2566      H3110   1.078       .  S
C2566      H2571   1.094       .  S
C2566      H2572   1.105   1_554  S
H2568      C3103   1.109       .  S
H2570      C3106   1.096       .  S
C2573      C3654   1.393       .  A
C2573      C2578   1.398       .  A
C2573      H2580   1.085       .  S
C2574      C3653   1.386       .  A
C2574      C2575   1.407       .  A
C2575      C2576   1.426       .  A
C2575      C2582   1.498       .  S
C2576      C2577   1.423       .  A
C2576      H2581   1.066       .  S
C2577      C3658   1.377       .  A
C2578      C3657   1.407       .  A
C2578      C2579   1.478       .  S
C2579      H2583   1.105       .  S
C2579      H3664   1.100       .  S
C2579      H2585   1.103       .  S
C2582      H2586   1.102       .  S
C2582      H3667   1.110       .  S
C2582      H2588   1.108       .  S
H2584      C3659   1.110       .  S
H2587      C3662   1.080       .  S
C2589      C2590   1.437       .  A
C2589      C2594   1.435       .  A
C2589      H2596   1.071       .  S
C2591      C2592   1.363       .  A
C2591      C2598   1.513   1_455  S
C2592      H2597   1.063       .  S
C2593      C2594   1.410       .  A
C2594      C2595   1.489       .  S
C2595      H2599   1.101       .  S
C2595      H2600   1.110       .  S
C2595      H2601   1.110       .  S
C2598      H2602   1.094       .  S
C2598      H2603   1.100       .  S
C2598      H2604   1.095       .  S
C2605      C3686   1.422       .  A
C2605      C2610   1.422       .  A
C2605      H2612   1.082       .  S
C2606      C3685   1.398       .  A
C2606      C2607   1.399       .  A
C2607      C2608   1.418       .  A
C2607      C2614   1.499       .  S
C2608      C2609   1.423       .  A
C2608      H2613   1.077       .  S
C2609      C3690   1.436       .  A
C2610      C3689   1.457       .  A
C2610      C2611   1.509       .  S
C2611      H2615   1.111       .  S
C2611      H3696   1.098       .  S
C2611      H2617   1.105       .  S
C2614      H2618   1.108       .  S
C2614      H3699   1.107       .  S
C2614      H2620   1.109       .  S
H2616      C3691   1.090       .  S
H2619      C3694   1.100       .  S
C2621      C2622   1.410       .  A
C2621      C2626   1.367       .  A
C2621      H2628   1.058   1_455  S
C2623      C2624   1.419       .  A
C2623      C2630   1.503       .  S
C2624      H2629   1.075       .  S
C2625      C2626   1.388       .  A
C2626      C2627   1.513   1_455  S
C2627      H2631   1.111       .  S
C2627      H2632   1.107       .  S
C2627      H2633   1.100       .  S
C2630      H2634   1.110       .  S
C2630      H2635   1.110       .  S
C2630      H2636   1.111       .  S
C2637      C2638   1.431       .  A
C2637      C2642   1.430       .  A
C2637      H2644   1.078       .  S
C2638      C3719   1.411       .  A
C2639      C3718   1.414       .  A
C2639      C2640   1.419       .  A
C2639      C2646   1.477       .  S
C2640      C3721   1.411       .  A
C2640      H2645   1.083       .  S
C2641      C3720   1.410       .  A
C2641      C2642   1.389       .  A
C2642      C2643   1.515       .  S
C2643      H2647   1.108       .  S
C2643      H3728   1.098       .  S
C2643      H2649   1.101       .  S
C2646      H2650   1.110       .  S
C2646      H3731   1.098       .  S
C2646      H2652   1.094       .  S
H2648      C3723   1.096       .  S
H2651      C3726   1.098       .  S
C2653      C2654   1.427       .  A
C2653      C2658   1.359       .  A
C2653      H2660   1.041       .  S
C2655      C2656   1.408       .  A
C2655      C2662   1.499       .  S
C2656      H2661   1.080       .  S
C2657      C2658   1.372       .  A
C2658      C2659   1.527       .  S
C2659      H2663   1.110       .  S
C2659      H2664   1.108       .  S
C2659      H2665   1.111       .  S
C2662      H2666   1.098       .  S
C2662      H2667   1.102       .  S
C2662      H2668   1.102       .  S
C2669      C3750   1.411       .  A
C2669      C2674   1.415       .  A
C2669      H2676   1.049       .  S
C2670      C3254   1.517       .  S
C2670      C3749   1.401       .  A
C2670      C2671   1.437       .  A
C2671      C2672   1.407       .  A
C2671      C2678   1.496       .  S
C2672      C2673   1.398       .  A
C2672      H2677   1.082       .  S
C2673      C3754   1.396       .  A
C2674      C3753   1.382       .  A
C2674      C2675   1.495       .  S
C2675      H2679   1.108       .  S
C2675      H3760   1.099       .  S
C2675      H2681   1.107       .  S
C2678      H2682   1.098       .  S
C2678      H3763   1.109       .  S
C2678      H2684   1.087       .  S
H2680      C3755   1.099       .  S
H2683      C3758   1.109       .  S
C2685      C2686   1.383       .  A
C2685      C2690   1.386       .  A
C2685      H2692   1.080       .  S
C2687      C2688   1.442       .  A
C2687      C2694   1.501       .  S
C2688      H2693   1.083       .  S
C2689      C2690   1.383       .  A
C2690      C2691   1.522       .  S
C2691      H2695   1.069       .  S
C2691      H2696   1.101       .  S
C2691      H2697   1.104       .  S
C2694      H2698   1.107       .  S
C2694      H2699   1.110       .  S
C2694      H2700   1.110       .  S
O2701      C2712   1.270       .  A
O2702      C2713   1.255       .  A
O2703      C2714   1.295       .  A
O2703     Zr3789   2.428   1_655  S
O2704      C2715   1.307       .  A
O2705      C2715   1.291       .  A
O2705     Zr2739   2.483       .  S
O2706      C2714   1.315       .  A
O2707      C2713   1.278       .  A
O2707     Zr3789   2.438       .  S
O2708      C2712   1.295       .  A
O2708     Zr2709   2.456   1_655  S
Zr2709     O3783   2.419   1_445  S
Zr2709     O3787   2.437   1_545  S
Zr2709     O2711   2.320   1_455  S
Zr2709     O3797   2.347   1_445  S
O2710     Zr2736   2.381       .  S
O2710     Zr3819   2.350       .  S
O2711     Zr3278   2.288       .  S
C2714      C4290   1.528       .  S
C2715      C3178   1.530       .  S
H2716      O2717   0.958       .  S
O2717     Zr3789   2.350   1_655  S
H2718      O2719   0.961       .  S
O2719     Zr2739   2.388       .  S
O2720      C2743   1.269       .  A
O2721      C2744   1.261       .  A
O2722      C2745   1.281       .  A
O2722     Zr2738   2.382   1_556  S
O2723      C2746   1.292       .  A
O2723     Zr3819   2.472       .  S
O2724      C2747   1.290       .  A
O2724     Zr2739   2.485       .  S
O2725      C2748   1.296       .  A
O2725     Zr3818   2.450       .  S
O2726      C2749   1.295       .  A
O2727      C2750   1.273       .  A
O2727     Zr3820   2.362       .  S
O2728      C2749   1.271       .  A
O2728     Zr2738   2.332   1_556  S
O2729      C2750   1.307       .  A
O2731      C2748   1.272       .  A
O2731     Zr2737   2.366   1_656  S
O2733      C2746   1.273       .  A
O2733     Zr2736   2.330       .  S
O2734      C2743   1.275       .  A
O2734     Zr2740   2.411       .  S
O2735      C2744   1.264       .  A
O2735     Zr3820   2.295       .  S
Zr2737     O2752   2.330   1_454  S
Zr2738     O3805   2.501   1_554  S
Zr2738     O3251   2.260       .  S
Zr2738     O2742   2.379   1_554  S
Zr2738     O3832   2.351   1_554  S
Zr2739     O3803   2.436   1_545  S
Zr2739     O3790   2.393   1_545  S
Zr2739     O3294   2.402   1_545  S
Zr2740     O3807   2.418       .  S
Zr2740     O3815   2.267       .  S
Zr2740     O3821   2.312       .  S
Zr2740     O2754   2.272       .  S
O2741     Zr3820   2.314       .  S
C2744      C3130   1.435       .  S
C2745      C3050   1.458       .  S
C2746      C3082   1.452       .  S
C2747      C3098   1.491       .  S
C2748      C3066   1.455       .  S
C2749      C3117   1.478       .  S
C2750      C3149   1.495       .  S
H2751      O2752   0.961       .  S
O2752     Zr3818   2.376       .  S
H2753      O2754   0.962       .  S
O2754     Zr3279   2.359   1_556  S
C2755      C2766   1.582       .  S
C2755      C2756   1.419       .  A
C2755      C2760   1.477       .  A
C2756      C2757   1.418       .  A
C2756      H2761   1.085       .  S
C2757      C3226   1.527       .  S
C2757      C2758   1.388       .  A
C2758      C2759   1.408       .  A
C2758      H2762   1.078       .  S
C2759      C2959   1.554       .  S
C2759      C2760   1.470       .  A
C2760      H2763   1.079       .  S
O2764     Zr2776   2.483       .  S
O2765      C2766   1.303       .  A
O2765     Zr2802   2.550       .  S
O2767      C3849   1.314       .  A
O2767     Zr2779   2.525   1_565  S
O2768      C2769   1.279       .  A
O2768     Zr2803   2.474       .  S
C2769      O3847   1.286       .  A
C2769      C2880   1.530       .  S
O2770     Zr2779   2.524       .  S
O2771      C2772   1.326       .  A
O2771     Zr2802   2.583       .  S
C2772      C2871   1.607       .  S
O2773      C3855   1.287   1_545  A
O2773     Zr2776   2.449       .  S
O2774      C2775   1.327       .  A
O2774     Zr2803   2.585       .  S
C2775      O3853   1.287       .  A
C2775      C3906   1.546       .  S
Zr2776     O2782   2.344       .  S
Zr2776     O2783   2.337       .  S
Zr2776     O3886   2.404   1_545  S
Zr2776     O2777   2.442       .  S
Zr2776     O2778   2.429       .  S
O2777      H2820   0.990       .  S
O2778      H2819   0.987       .  S
O2778      H2823   0.984       .  S
Zr2779     O2783   2.360       .  S
Zr2779     O2782   2.351       .  S
Zr2779     O3889   2.413   1_545  S
Zr2779     O2780   2.435       .  S
Zr2779     O2781   2.398       .  S
O2780      H2821   0.988       .  S
O2780      H2824   0.985       .  S
O2781      H2814   0.989       .  S
O2783     Zr3883   2.395   1_545  S
O2783      H2810   0.964       .  S
O2784     Zr2796   2.547       .  S
O2785      C2786   1.312       .  A
O2785     Zr2803   2.521       .  S
O2787      C3869   1.296       .  A
O2787     Zr2799   2.495       .  S
O2788      C2789   1.326   1_545  A
O2788     Zr2802   2.578       .  S
C2789      O3867   1.290       .  A
C2789      C2862   1.565   1_565  S
O2790     Zr2799   2.497       .  S
O2791      C2792   1.298       .  A
O2791     Zr2803   2.500       .  S
C2792      C2853   1.535       .  S
O2793      C3875   1.285       .  A
O2793     Zr2796   2.443       .  S
O2794      C2795   1.303   1_545  A
O2794     Zr2802   2.467       .  S
C2795      O3873   1.291       .  A
C2795      C2844   1.512   1_565  S
Zr2796     O2804   2.354       .  S
Zr2796     O2805   2.382       .  S
Zr2796     O3888   2.426       .  S
Zr2796     O2797   2.438       .  S
Zr2796     O2798   2.426       .  S
O2797      H2817   0.990       .  S
O2797      H2822   0.990       .  S
O2798      H2818   0.986       .  S
Zr2799     O2805   2.349       .  S
Zr2799     O2804   2.352       .  S
Zr2799     O3887   2.387       .  S
Zr2799     O2800   2.422       .  S
Zr2799     O2801   2.369       .  S
O2800      H2816   0.990       .  S
O2801      H2815   0.986       .  S
O2801      H2825   0.985       .  S
Zr2802     O3885   2.404   1_545  S
Zr2802     O2807   2.372       .  S
Zr2802     O2808   2.429       .  S
Zr2803     O3863   2.431       .  S
Zr2803     O2806   2.389       .  S
Zr2803     O2809   2.405       .  S
O2804      H2812   0.964       .  S
O2805     Zr3882   2.417       .  S
O2806     Zr3856   2.409       .  S
O2807     Zr3879   2.400   1_545  S
O2807      H2811   0.959       .  S
O2808     Zr3876   2.430   1_545  S
O2808      H2813   0.960       .  S
O2809     Zr3859   2.441       .  S
C2826      C3855   1.552       .  S
C2826      C2827   1.406       .  A
C2826      C2831   1.484   1_565  A
C2827      C2828   1.390       .  A
C2827      H2832   1.083       .  S
C2828      C3213   1.522       .  S
C2828      C2829   1.402       .  A
C2829      C2830   1.420       .  A
C2829      H2833   1.082       .  S
C2830      C2897   1.562       .  S
C2830      C2831   1.476   1_565  A
C2831      H2834   1.082       .  S
C2835      C2836   1.399       .  A
C2835      C2840   1.521       .  A
C2836      C2837   1.368       .  A
C2836      H2841   1.082       .  S
C2837      C3194   1.500       .  S
C2837      C2838   1.372       .  A
C2838      C2839   1.410       .  A
C2838      H2842   1.072       .  S
C2839      C2953   1.594       .  S
C2839      C2840   1.505       .  A
C2840      H2843   1.081       .  S
C2844      C2845   1.413       .  A
C2844      C2849   1.453   1_545  A
C2845      C2846   1.385       .  A
C2845      H2850   1.083       .  S
C2846      C3181   1.529       .  S
C2846      C2847   1.411       .  A
C2847      C2848   1.414       .  A
C2847      H2851   1.080       .  S
C2848      C2891   1.530   1_545  S
C2848      C2849   1.455   1_545  A
C2849      H2852   1.082       .  S
C2853      C2854   1.413   1_655  A
C2853      C2858   1.464       .  A
C2854      C2855   1.390       .  A
C2854      H2859   1.085       .  S
C2855      C3162   1.502       .  S
C2855      C2856   1.394       .  A
C2856      C2857   1.414   1_455  A
C2856      H2860   1.084       .  S
C2857      C2973   1.539       .  S
C2857      C2858   1.472       .  A
C2858      H2861   1.082       .  S
C2862      C2863   1.398       .  A
C2862      C2867   1.487   1_545  A
C2863      C2864   1.387       .  A
C2863      H2868   1.081       .  S
C2864      C3146   1.511       .  S
C2864      C2865   1.400       .  A
C2865      C2866   1.416   1_545  A
C2865      H2869   1.083       .  S
C2866      C3991   1.578       .  S
C2866      C2867   1.486       .  A
C2867      H2870   1.079       .  S
C2871      C2872   1.418       .  A
C2871      C2876   1.514       .  A
C2872      C2873   1.399       .  A
C2872      H2877   1.082       .  S
C2873      C3133   1.505       .  S
C2873      C2874   1.395       .  A
C2874      C2875   1.412       .  A
C2874      H2878   1.085       .  S
C2875      C2876   1.507       .  A
C2876      H2879   1.079       .  S
C2880      C2881   1.410       .  A
C2880      C2885   1.470       .  A
C2881      C2882   1.388       .  A
C2881      H2886   1.082       .  S
C2882      C3114   1.518       .  S
C2882      C2883   1.396       .  A
C2883      C2884   1.412       .  A
C2883      H2887   1.082       .  S
C2884      C2917   1.538       .  S
C2884      C2885   1.468       .  A
C2885      H2888   1.081       .  S
O2889      C3971   1.291       .  A
O2889     Zr2901   2.492       .  S
O2890      C2891   1.307   1_545  A
O2890     Zr2927   2.516       .  S
C2891      O3969   1.285       .  A
O2892     Zr2904   2.480       .  S
O2893      C2894   1.297       .  A
O2893     Zr2928   2.541       .  S
C2894      C3044   1.564       .  S
O2895      C3977   1.289       .  A
O2895     Zr2904   2.429       .  S
O2896      C2897   1.324   1_545  A
O2896     Zr2927   2.613       .  S
C2897      O3975   1.291       .  A
O2898     Zr2901   2.503       .  S
O2899      C2900   1.316       .  A
O2899     Zr2928   2.534       .  S
Zr2901     O2907   2.368       .  S
Zr2901     O2908   2.365       .  S
Zr2901     O4013   2.410       .  S
Zr2901     O2902   2.437       .  S
Zr2901     O2903   2.411       .  S
O2902      H2945   0.989       .  S
O2903      H2944   0.987       .  S
O2903      H2948   0.990       .  S
Zr2904     O2908   2.347       .  S
Zr2904     O2907   2.344       .  S
Zr2904     O4012   2.351       .  S
Zr2904     O2905   2.421       .  S
Zr2904     O2906   2.452       .  S
O2905      H2946   0.989       .  S
O2905      H2949   0.988       .  S
O2906      H2939   0.987       .  S
O2907     Zr4007   2.389       .  S
O2908      H2935   0.961       .  S
O2909      C3991   1.302   1_545  A
O2909     Zr2921   2.488       .  S
O2910      C2911   1.319       .  A
O2910     Zr2928   2.587       .  S
C2911      O3989   1.293       .  A
C2911      C3946   1.556       .  S
O2912     Zr2924   2.528       .  S
O2913      C2914   1.301       .  A
O2913     Zr2927   2.520       .  S
C2914      C3035   1.553       .  S
O2915      C3997   1.300       .  A
O2915     Zr2924   2.491   1_565  S
O2916      C2917   1.306       .  A
O2916     Zr2928   2.529       .  S
C2917      O3995   1.303       .  A
O2918     Zr2921   2.517       .  S
O2919      C2920   1.324       .  A
O2919     Zr2927   2.595       .  S
C2920      C3013   1.585       .  S
Zr2921     O2929   2.352   1_545  S
Zr2921     O2930   2.331       .  S
Zr2921     O4011   2.438   1_545  S
Zr2921     O2922   2.445       .  S
Zr2921     O2923   2.382       .  S
O2922      H2942   0.988       .  S
O2922      H2947   0.986       .  S
O2923      H2943   0.984       .  S
Zr2924     O2930   2.343       .  S
Zr2924     O2929   2.334   1_545  S
Zr2924     O4014   2.376   1_545  S
Zr2924     O2925   2.438       .  S
Zr2924     O2926   2.431       .  S
O2925      H2941   0.989       .  S
O2926      H2940   0.988   1_545  S
O2926      H2950   0.987       .  S
Zr2927     O3987   2.375   1_545  S
Zr2927     O2932   2.388       .  S
Zr2927     O2933   2.429       .  S
Zr2928     O4009   2.386       .  S
Zr2928     O2931   2.441       .  S
Zr2928     O2934   2.418       .  S
O2929     Zr4008   2.426       .  S
O2929      H2937   0.959   1_565  S
O2931     Zr4001   2.419       .  S
O2932     Zr3984   2.348   1_545  S
O2932      H2936   0.960       .  S
O2933     Zr3981   2.421   1_545  S
O2933      H2938   0.962       .  S
O2934     Zr4004   2.374       .  S
O2951     Zr2963   2.509       .  S
O2952      C2953   1.306       .  A
O2952     Zr2989   2.585       .  S
O2954     Zr2966   2.505       .  S
O2955      C2956   1.309       .  A
O2955     Zr2990   2.515       .  S
O2957     Zr2966   2.486       .  S
O2958      C2959   1.308       .  A
O2958     Zr2989   2.555       .  S
O2960     Zr2963   2.512       .  S
O2961      C2962   1.290       .  A
O2961     Zr2990   2.504       .  S
C2962      C3040   1.556       .  S
Zr2963     O2969   2.342       .  S
Zr2963     O2970   2.361       .  S
Zr2963     O2964   2.427       .  S
Zr2963     O2965   2.431       .  S
O2964      H3007   0.987       .  S
O2965      H3006   0.986       .  S
O2965      H3010   0.985       .  S
Zr2966     O2970   2.349       .  S
Zr2966     O2969   2.339       .  S
Zr2966     O2967   2.424       .  S
Zr2966     O2968   2.340       .  S
O2967      H3008   0.989       .  S
O2967      H3011   0.989       .  S
O2968      H3001   0.989       .  S
O2970      H2997   0.964       .  S
O2971     Zr2983   2.499       .  S
O2972      C2973   1.294       .  A
O2972     Zr2990   2.479       .  S
O2974     Zr2986   2.513       .  S
O2975      C2976   1.315       .  A
O2975     Zr2989   2.537       .  S
C2976      C3017   1.575       .  S
O2977     Zr2986   2.543       .  S
O2978      C2979   1.300       .  A
O2978     Zr2990   2.579       .  S
O2980     Zr2983   2.469       .  S
O2981      C2982   1.294       .  A
O2981     Zr2989   2.529       .  S
C2982      C3026   1.556       .  S
Zr2983     O2991   2.340       .  S
Zr2983     O2992   2.353       .  S
Zr2983     O2984   2.438       .  S
Zr2983     O2985   2.437       .  S
O2984      H3004   0.989       .  S
O2984      H3009   0.989       .  S
O2985      H3005   0.989       .  S
Zr2986     O2992   2.345       .  S
Zr2986     O2991   2.345       .  S
Zr2986     O2987   2.416       .  S
Zr2986     O2988   2.344       .  S
O2987      H3003   0.990       .  S
O2988      H3002   0.983       .  S
O2988      H3012   0.982       .  S
Zr2989     O2994   2.404       .  S
Zr2989     O2995   2.457       .  S
Zr2990     O2993   2.411       .  S
Zr2990     O2996   2.413       .  S
O2991      H2999   0.962       .  S
O2994      H2998   0.963       .  S
O2995      H3000   0.964       .  S
C3013      C3014   1.416       .  A
C3013      C3018   1.492       .  A
C3014      C3015   1.410       .  A
C3014      H3019   1.081       .  S
C3015      C3101   1.519       .  S
C3015      C3016   1.386       .  A
C3016      C3017   1.403       .  A
C3016      H3020   1.082       .  S
C3017      C3018   1.481       .  A
C3018      H3021   1.082       .  S
C3022      C3023   1.408       .  A
C3022      C3027   1.496       .  A
C3025      C3026   1.403       .  A
C3025      H3029   1.082       .  S
C3026      C3027   1.489       .  A
C3027      H3030   1.082       .  S
C3031      C3032   1.410       .  A
C3031      C3036   1.470       .  A
C3032      C3033   1.387       .  A
C3032      H3037   1.081       .  S
C3033      C3034   1.403       .  A
C3034      C3035   1.426       .  A
C3034      H3038   1.083       .  S
C3035      C3036   1.474       .  A
C3036      H3039   1.080       .  S
C3040      C3041   1.410   1_556  A
C3040      C3045   1.497       .  A
C3041      C3042   1.379       .  A
C3041      H3046   1.080       .  S
C3042      C3053   1.531       .  S
C3042      C3043   1.384       .  A
C3043      C3044   1.418   1_554  A
C3043      H3047   1.079       .  S
C3044      C3045   1.496       .  A
C3045      H3048   1.081       .  S
C3049      C3050   1.383       .  A
C3049      C3054   1.392       .  A
C3049      H3056   1.086       .  S
C3051      C3052   1.404       .  A
C3051      C3058   1.481       .  S
C3052      H3057   1.073       .  S
C3053      C3054   1.414   1_554  A
C3054      C3055   1.463   1_556  S
C3055      H3059   1.105       .  S
C3055      H3061   1.113   1_554  S
C3058      H3062   1.098       .  S
C3058      H3064   1.079       .  S
C3065      C3066   1.412       .  A
C3065      C3070   1.411       .  A
C3065      H3072   1.079       .  S
C3067      C3068   1.391       .  A
C3067      C3074   1.523       .  S
C3068      H3073   1.051       .  S
C3069      C3070   1.415       .  A
C3070      C3071   1.502       .  S
C3071      H3075   1.110       .  S
C3071      H3077   1.111       .  S
C3074      H3078   1.107       .  S
C3074      H3080   1.082       .  S
C3081      C3082   1.379       .  A
C3081      C3086   1.386       .  A
C3081      H3088   1.087       .  S
C3083      C3084   1.406       .  A
C3083      C3090   1.475       .  S
C3084      H3089   1.084       .  S
C3085      C3086   1.441       .  A
C3086      C3087   1.502       .  S
C3087      H3091   1.106       .  S
C3087      H3092   1.108       .  S
C3087      H3093   1.084       .  S
C3090      H3094   1.096       .  S
C3090      H3095   1.103       .  S
C3090      H3096   1.101       .  S
C3097      C3098   1.424       .  A
C3097      C3102   1.433       .  A
C3097      H3104   1.076       .  S
C3098      C3099   1.407       .  A
C3099      C3100   1.393       .  A
C3099      C3106   1.487       .  S
C3100      C3101   1.383       .  A
C3100      H3105   1.075       .  S
C3101      C3102   1.418       .  A
C3102      C3103   1.498       .  S
C3103      H3107   1.111       .  S
C3103      H3109   1.106       .  S
C3106      H3111   1.070       .  S
C3106      H3112   1.090       .  S
C3113      C4194   1.395       .  A
C3113      C3118   1.398       .  A
C3113      H3120   1.085       .  S
C3114      C4193   1.383       .  A
C3114      C3115   1.373       .  A
C3115      C3116   1.407       .  A
C3115      C3122   1.471       .  S
C3116      C3117   1.408       .  A
C3116      H3121   1.060       .  S
C3117      C4198   1.395       .  A
C3118      C4197   1.409       .  A
C3118      C3119   1.485       .  S
C3119      H3123   1.102       .  S
C3119      H4204   1.102       .  S
C3119      H3125   1.103       .  S
C3122      H3126   1.070       .  S
C3122      H4207   1.107       .  S
C3122      H3128   1.109       .  S
H3124      C4199   1.109       .  S
H3127      C4202   1.082       .  S
C3129      C3130   1.427       .  A
C3129      C3134   1.419       .  A
C3129      H3136   1.080       .  S
C3131      C3132   1.316       .  A
C3131      C3138   1.510   1_455  S
C3132      H3137   1.081       .  S
C3133      C3134   1.408       .  A
C3134      C3135   1.503       .  S
C3135      H3139   1.111       .  S
C3135      H3140   1.109       .  S
C3135      H3141   1.108       .  S
C3138      H3142   1.104       .  S
C3138      H3143   1.104       .  S
C3138      H3144   1.103       .  S
C3145      C4226   1.394       .  A
C3145      C3150   1.405       .  A
C3145      H3152   1.083       .  S
C3146      C4225   1.421       .  A
C3146      C3147   1.418       .  A
C3147      C3148   1.391       .  A
C3147      C3154   1.547       .  S
C3148      C3149   1.396       .  A
C3148      H3153   1.078       .  S
C3149      C4230   1.459       .  A
C3150      C4229   1.437       .  A
C3150      C3151   1.495       .  S
C3151      H3155   1.104       .  S
C3151      H4236   1.089       .  S
C3151      H3157   1.101       .  S
C3154      H3158   1.044   1_545  S
C3154      H4239   1.097       .  S
C3154      H3160   1.097       .  S
H3156      C4231   1.097       .  S
H3159      C4234   1.108       .  S
C3161      C3162   1.405       .  A
C3161      C3166   1.345       .  A
C3161      H3168   1.047   1_455  S
C3163      C3164   1.419       .  A
C3163      C3170   1.502       .  S
C3164      H3169   1.076       .  S
C3165      C3166   1.384       .  A
C3166      C3167   1.523   1_455  S
C3167      H3171   1.107       .  S
C3167      H3172   1.110       .  S
C3167      H3173   1.102       .  S
C3170      H3174   1.110       .  S
C3170      H3175   1.110       .  S
C3170      H3176   1.111       .  S
C3177      C3178   1.419       .  A
C3177      C3182   1.422       .  A
C3177      H3184   1.073       .  S
C3178      C4259   1.418       .  A
C3179      C4258   1.411       .  A
C3179      C3180   1.418       .  A
C3179      C3186   1.478       .  S
C3180      C4261   1.411       .  A
C3180      H3185   1.083       .  S
C3181      C4260   1.412       .  A
C3181      C3182   1.389       .  A
C3182      C3183   1.507       .  S
C3183      H3187   1.107       .  S
C3183      H4268   1.091       .  S
C3183      H3189   1.101       .  S
C3186      H3190   1.110       .  S
C3186      H4271   1.099       .  S
C3186      H3192   1.098       .  S
H3188      C4263   1.097       .  S
H3191      C4266   1.100       .  S
C3193      C3194   1.428       .  A
C3193      C3198   1.361       .  A
C3193      H3200   1.042       .  S
C3195      C3196   1.401       .  A
C3195      C3202   1.493       .  S
C3196      H3201   1.082       .  S
C3197      C3198   1.372       .  A
C3198      C3199   1.525       .  S
C3199      H3203   1.111       .  S
C3199      H3204   1.108       .  S
C3199      H3205   1.111       .  S
C3202      H3206   1.102       .  S
C3202      H3207   1.097       .  S
C3202      H3208   1.101       .  S
C3209      C4290   1.407       .  A
C3209      C3214   1.413       .  A
C3209      H3216   1.049       .  S
C3210      C3794   1.537       .  S
C3210      C4289   1.408       .  A
C3210      C3211   1.444       .  A
C3211      C3212   1.406       .  A
C3211      C3218   1.488       .  S
C3212      C3213   1.392       .  A
C3212      H3217   1.083       .  S
C3213      C4294   1.389       .  A
C3214      C4293   1.387       .  A
C3214      C3215   1.493       .  S
C3215      H3219   1.109       .  S
C3215      H4300   1.102       .  S
C3215      H3221   1.107       .  S
C3218      H3222   1.090       .  S
C3218      H4303   1.108       .  S
C3218      H3224   1.085       .  S
H3220      C4295   1.095       .  S
H3223      C4298   1.107       .  S
C3225      C3226   1.382       .  A
C3225      C3230   1.382       .  A
C3225      H3232   1.044       .  S
C3227      C3228   1.438       .  A
C3227      C3234   1.500       .  S
C3228      H3233   1.083       .  S
C3229      C3230   1.382       .  A
C3230      C3231   1.515       .  S
C3231      H3235   1.078       .  S
C3231      H3236   1.078       .  S
C3231      H3237   1.103       .  S
C3234      H3238   1.106       .  S
C3234      H3239   1.110       .  S
C3234      H3240   1.111       .  S
O3241      C3252   1.270       .  A
O3241     Zr3817   2.428       .  S
O3242      C3253   1.258       .  A
O3243      C3254   1.287       .  A
O3244      C3255   1.317       .  A
O3245      C3255   1.286       .  A
O3245     Zr3279   2.474       .  S
O3246      C3254   1.319       .  A
O3246     Zr3818   2.552   1_564  S
O3247      C3253   1.281       .  A
O3248      C3252   1.302       .  A
O3248     Zr3249   2.488   1_655  S
Zr3249     O3251   2.308   1_455  S
O3250     Zr3276   2.375   1_554  S
O3251     Zr3817   2.302       .  S
C3255      C3718   1.537       .  S
H3256      O3257   0.959       .  S
O3257     Zr3818   2.284   1_564  S
H3258      O3259   0.961       .  S
O3259     Zr3279   2.382       .  S
O3260      C3283   1.274       .  A
O3260     Zr3816   2.383       .  S
O3261      C3284   1.262       .  A
O3262      C3285   1.284       .  A
O3262     Zr3278   2.394   1_565  S
O3263      C3286   1.292       .  A
O3264      C3287   1.283       .  A
O3264     Zr3279   2.489       .  S
O3265      C3288   1.301       .  A
O3266      C3289   1.288       .  A
O3267      C3290   1.275       .  A
O3268      C3289   1.289       .  A
O3268     Zr3278   2.409       .  S
O3269      C3290   1.306       .  A
O3269     Zr3819   2.492       .  S
O3270      C3825   1.285       .  A
O3271      C3288   1.271       .  A
O3271     Zr3277   2.350       .  S
O3272      C3827   1.270       .  A
O3273      C3286   1.272       .  A
O3273     Zr3276   2.324       .  S
O3274      C3283   1.277       .  A
O3274     Zr3280   2.412   1_565  S
O3275      C3284   1.268       .  A
Zr3276     O3800   2.357       .  S
Zr3276     O3834   2.303       .  S
Zr3277     O3781   2.406       .  S
Zr3277     O3791   2.301       .  S
Zr3277     O3292   2.321       .  S
Zr3278     O3786   2.578   1_545  S
Zr3278     O3797   2.299   1_545  S
Zr3278     O3282   2.368   1_545  S
Zr3279     O3809   2.540   1_554  S
Zr3279     O3821   2.243   1_554  S
Zr3280     O3294   2.279   1_545  S
O3281     Zr3819   2.259       .  S
C3284      C3670   1.433       .  S
C3285      O3810   1.281       .  A
C3285      C3590   1.469       .  S
C3286      C3622   1.451       .  S
C3287      O3812   1.262       .  A
C3287      C3638   1.469       .  S
C3288      C3606   1.455       .  S
C3289      C3657   1.453       .  S
C3290      C3689   1.495       .  S
H3291      O3292   0.955       .  S
H3293      O3294   0.957       .  S
O3294     Zr3816   2.299       .  S
C3295      C3306   1.579       .  S
C3295      C3296   1.420       .  A
C3295      C3300   1.472       .  A
C3296      C3297   1.418       .  A
C3296      H3301   1.085       .  S
C3297      C3766   1.529       .  S
C3297      C3298   1.388       .  A
C3298      C3299   1.410       .  A
C3298      H3302   1.079       .  S
C3299      C3499   1.553       .  S
C3299      C3300   1.471       .  A
C3300      H3303   1.078       .  S
O3304     Zr3316   2.501       .  S
O3305      C3306   1.304       .  A
O3305     Zr3342   2.553       .  S
O3307     Zr3319   2.532       .  S
O3308      C3309   1.294       .  A
O3308     Zr3343   2.486       .  S
C3309      C3420   1.542       .  S
O3310     Zr3319   2.532       .  S
O3311      C3312   1.322       .  A
O3311     Zr3342   2.566       .  S
C3312      C3411   1.598       .  S
O3313     Zr3316   2.433       .  S
O3314      C3315   1.326       .  A
O3314     Zr3343   2.582       .  S
Zr3316     O3322   2.326       .  S
Zr3316     O3323   2.342       .  S
Zr3316     O3317   2.443       .  S
Zr3316     O3318   2.420       .  S
O3317      H3360   0.990       .  S
O3318      H3359   0.988       .  S
O3318      H3363   0.984       .  S
Zr3319     O3323   2.354       .  S
Zr3319     O3322   2.350       .  S
Zr3319     O3320   2.449       .  S
Zr3319     O3321   2.422       .  S
O3320      H3361   0.987       .  S
O3320      H3364   0.990       .  S
O3321      H3354   0.986       .  S
O3323      H3350   0.963       .  S
O3324     Zr3336   2.544       .  S
O3325      C3326   1.316       .  A
O3325     Zr3343   2.532       .  S
O3327     Zr3339   2.485       .  S
O3328      C3329   1.327       .  A
O3328     Zr3342   2.580       .  S
C3329      C3402   1.573       .  S
O3330     Zr3339   2.510       .  S
O3331      C3332   1.303       .  A
O3331     Zr3343   2.519       .  S
C3332      C3393   1.536       .  S
O3333     Zr3336   2.451       .  S
O3334      C3335   1.300       .  A
O3334     Zr3342   2.451       .  S
C3335      C3384   1.491       .  S
Zr3336     O3344   2.356       .  S
Zr3336     O3345   2.382       .  S
Zr3336     O3337   2.437       .  S
Zr3336     O3338   2.424       .  S
O3337      H3357   0.990       .  S
O3337      H3362   0.990       .  S
O3338      H3358   0.987       .  S
Zr3339     O3345   2.349       .  S
Zr3339     O3344   2.349       .  S
Zr3339     O3340   2.422       .  S
Zr3339     O3341   2.363       .  S
O3340      H3356   0.989       .  S
O3341      H3355   0.985       .  S
O3341      H3365   0.985       .  S
Zr3342     O3347   2.372       .  S
Zr3342     O3348   2.423       .  S
Zr3343     O3346   2.399       .  S
Zr3343     O3349   2.423       .  S
O3344      H3352   0.964       .  S
O3347      H3351   0.960       .  S
O3348      H3353   0.960       .  S
C3366      C3367   1.402       .  A
C3366      C3371   1.476       .  A
C3367      C3368   1.385       .  A
C3367      H3372   1.083       .  S
C3368      C3753   1.522       .  S
C3368      C3369   1.409       .  A
C3369      C3370   1.422       .  A
C3369      H3373   1.082       .  S
C3370      C3437   1.555       .  S
C3370      C3371   1.468       .  A
C3371      H3374   1.082       .  S
C3375      C3376   1.399       .  A
C3375      C3380   1.518       .  A
C3376      C3377   1.367       .  A
C3376      H3381   1.082       .  S
C3377      C3734   1.499       .  S
C3377      C3378   1.370       .  A
C3378      C3379   1.409       .  A
C3378      H3382   1.071       .  S
C3379      C3493   1.589       .  S
C3379      C3380   1.502       .  A
C3380      H3383   1.081       .  S
C3384      C3385   1.413       .  A
C3384      C3389   1.447       .  A
C3385      C3386   1.381       .  A
C3385      H3390   1.084       .  S
C3386      C3721   1.532       .  S
C3386      C3387   1.412       .  A
C3387      C3388   1.415       .  A
C3387      H3391   1.080       .  S
C3388      C3431   1.522       .  S
C3388      C3389   1.442       .  A
C3389      H3392   1.082       .  S
C3393      C3394   1.414   1_655  A
C3393      C3398   1.465       .  A
C3394      C3395   1.391       .  A
C3394      H3399   1.085       .  S
C3395      C3702   1.507       .  S
C3395      C3396   1.396       .  A
C3396      C3397   1.418   1_455  A
C3396      H3400   1.084       .  S
C3397      C3513   1.540       .  S
C3397      C3398   1.471       .  A
C3398      H3401   1.082       .  S
C3402      C3403   1.398       .  A
C3402      C3407   1.490       .  A
C3403      C3404   1.387       .  A
C3403      H3408   1.081       .  S
C3404      C3686   1.512       .  S
C3404      C3405   1.401       .  A
C3405      C3406   1.416       .  A
C3405      H3409   1.082       .  S
C3406      C3407   1.492       .  A
C3407      H3410   1.078       .  S
C3411      C3412   1.419       .  A
C3411      C3416   1.505       .  A
C3412      C3413   1.401       .  A
C3412      H3417   1.082       .  S
C3413      C3673   1.505       .  S
C3413      C3414   1.396       .  A
C3414      C3415   1.414       .  A
C3414      H3418   1.085       .  S
C3415      C3416   1.505       .  A
C3416      H3419   1.079       .  S
C3420      C3421   1.406   1_565  A
C3420      C3425   1.480       .  A
C3421      C3422   1.377       .  A
C3421      H3426   1.081       .  S
C3422      C3654   1.517       .  S
C3422      C3423   1.371       .  A
C3423      C3424   1.400   1_545  A
C3423      H3427   1.085       .  S
C3424      C3457   1.535       .  S
C3424      C3425   1.485       .  A
C3425      H3428   1.081       .  S
O3429     Zr3441   2.480       .  S
O3430      C3431   1.298       .  A
O3430     Zr3467   2.476       .  S
O3432      C3974   1.285       .  A
O3432     Zr3444   2.435   1_556  S
O3433      C3434   1.301       .  A
O3433     Zr3468   2.569       .  S
C3434      O3972   1.287       .  A
C3434      C3584   1.572       .  S
O3435     Zr3444   2.409       .  S
O3436      C3437   1.323       .  A
O3436     Zr3467   2.608       .  S
O3438      C3980   1.295   1_554  A
O3438     Zr3441   2.513       .  S
O3439      C3440   1.310       .  A
O3439     Zr3468   2.513       .  S
C3440      O3978   1.293       .  A
C3440      C4102   1.549       .  S
Zr3441     O3447   2.371       .  S
Zr3441     O3448   2.364       .  S
Zr3441     O4011   2.431   1_554  S
Zr3441     O3442   2.440       .  S
Zr3441     O3443   2.409       .  S
O3442      H3485   0.989       .  S
O3443      H3484   0.986       .  S
O3443      H3488   0.990       .  S
Zr3444     O3448   2.352       .  S
Zr3444     O3447   2.328       .  S
Zr3444     O4014   2.372   1_554  S
Zr3444     O3445   2.444       .  S
Zr3444     O3446   2.451       .  S
O3445      H3486   0.988       .  S
O3445      H3489   0.989       .  S
O3446      H3479   0.989       .  S
O3448     Zr4008   2.411   1_554  S
O3448      H3475   0.961       .  S
O3449     Zr3461   2.484       .  S
O3450      C3451   1.318       .  A
O3450     Zr3468   2.580       .  S
O3452      C3994   1.304       .  A
O3452     Zr3464   2.545       .  S
O3453      C3454   1.297       .  A
O3453     Zr3467   2.516       .  S
C3454      O3992   1.305   1_554  A
C3454      C3575   1.569       .  S
O3455     Zr3464   2.451       .  S
O3456      C3457   1.286       .  A
O3456     Zr3468   2.484       .  S
O3458      C4000   1.298       .  A
O3458     Zr3461   2.511       .  S
O3459      C3460   1.323       .  A
O3459     Zr3467   2.587       .  S
C3460      O3998   1.297   1_554  A
C3460      C3553   1.581       .  S
Zr3461     O3469   2.362       .  S
Zr3461     O3470   2.328       .  S
Zr3461     O4013   2.416       .  S
Zr3461     O3462   2.446       .  S
Zr3461     O3463   2.380       .  S
O3462      H3482   0.987       .  S
O3462      H3487   0.986       .  S
O3463      H3483   0.985       .  S
Zr3464     O3470   2.321       .  S
Zr3464     O3469   2.325       .  S
Zr3464     O4012   2.371       .  S
Zr3464     O3465   2.434       .  S
Zr3464     O3466   2.395       .  S
O3465      H3481   0.989       .  S
O3466      H3480   0.990       .  S
O3466      H3490   0.980       .  S
Zr3467     O4010   2.360   1_554  S
Zr3467     O3472   2.373       .  S
Zr3467     O3473   2.429       .  S
Zr3468     O3988   2.405       .  S
Zr3468     O3471   2.445       .  S
Zr3468     O3474   2.442       .  S
O3469      H3477   0.963       .  S
O3470     Zr4007   2.380       .  S
O3471     Zr3981   2.419       .  S
O3472     Zr4004   2.364   1_554  S
O3472      H3476   0.963       .  S
O3473     Zr4001   2.406   1_554  S
O3473      H3478   0.959       .  S
O3474     Zr3984   2.368       .  S
O3491     Zr3503   2.508       .  S
O3492      C3493   1.304       .  A
O3492     Zr3529   2.579       .  S
O3494      C4036   1.297   1_554  A
O3494     Zr3506   2.512       .  S
O3495      C3496   1.313       .  A
O3495     Zr3530   2.529       .  S
C3496      O4034   1.295       .  A
C3496      C4111   1.553       .  S
O3497     Zr3506   2.496       .  S
O3498      C3499   1.307       .  A
O3498     Zr3529   2.541       .  S
O3500      C4042   1.300       .  A
O3500     Zr3503   2.508   1_556  S
O3501      C3502   1.292       .  A
O3501     Zr3530   2.522       .  S
C3502      O4040   1.302       .  A
C3502      C3580   1.565       .  S
Zr3503     O3509   2.340       .  S
Zr3503     O3510   2.370       .  S
Zr3503     O4073   2.403   1_554  S
Zr3503     O3504   2.426       .  S
Zr3503     O3505   2.442       .  S
O3504      H3547   0.988       .  S
O3505      H3546   0.987       .  S
O3505      H3550   0.980       .  S
Zr3506     O3510   2.348       .  S
Zr3506     O3509   2.348       .  S
Zr3506     O4076   2.426   1_554  S
Zr3506     O3507   2.423       .  S
Zr3506     O3508   2.356       .  S
O3507      H3548   0.989       .  S
O3507      H3551   0.989       .  S
O3508      H3541   0.987       .  S
O3510     Zr4070   2.441   1_554  S
O3510      H3537   0.964       .  S
O3511     Zr3523   2.490       .  S
O3512      C3513   1.297       .  A
O3512     Zr3530   2.506       .  S
O3514      C4056   1.302       .  A
O3514     Zr3526   2.523       .  S
O3515      C3516   1.313       .  A
O3515     Zr3529   2.522       .  S
C3516      O4054   1.304   1_554  A
C3516      C3557   1.571       .  S
O3517     Zr3526   2.541       .  S
O3518      C3519   1.314       .  A
O3518     Zr3530   2.592       .  S
O3520      C4062   1.285       .  A
O3520     Zr3523   2.479       .  S
O3521      C3522   1.286       .  A
O3521     Zr3529   2.521       .  S
C3522      O4060   1.288       .  A
C3522      C3566   1.547       .  S
Zr3523     O3531   2.331       .  S
Zr3523     O3532   2.366       .  S
Zr3523     O4075   2.438       .  S
Zr3523     O3524   2.443       .  S
Zr3523     O3525   2.438       .  S
O3524      H3544   0.989       .  S
O3524      H3549   0.989       .  S
O3525      H3545   0.989       .  S
Zr3526     O3532   2.349       .  S
Zr3526     O3531   2.352       .  S
Zr3526     O4074   2.407       .  S
Zr3526     O3527   2.414       .  S
Zr3526     O3528   2.346       .  S
O3527      H3543   0.990       .  S
O3528      H3542   0.984       .  S
O3528      H3552   0.983       .  S
Zr3529     O4072   2.439   1_554  S
Zr3529     O3534   2.410       .  S
Zr3529     O3535   2.461       .  S
Zr3530     O4050   2.446       .  S
Zr3530     O3533   2.410       .  S
Zr3530     O3536   2.414       .  S
O3531      H3539   0.962       .  S
O3532     Zr4069   2.456       .  S
O3533     Zr4043   2.403       .  S
O3534     Zr4066   2.408   1_554  S
O3534      H3538   0.966       .  S
O3535     Zr4063   2.395   1_554  S
O3535      H3540   0.964       .  S
O3536     Zr4046   2.431       .  S
C3553      C3554   1.422       .  A
C3553      C3558   1.491       .  A
C3554      C3555   1.410       .  A
C3554      H3559   1.082       .  S
C3555      C3641   1.526       .  S
C3555      C3556   1.390       .  A
C3556      C3557   1.411       .  A
C3556      H3560   1.080       .  S
C3557      C3558   1.481       .  A
C3558      H3561   1.081   1_554  S
C3562      C3980   1.552       .  S
C3562      C3563   1.408       .  A
C3562      C3567   1.490   1_556  A
C3563      C4104   1.384       .  A
C3563      H4108   1.082       .  S
C3564      C4165   1.516       .  S
C3564      C4103   1.386       .  A
C3564      C4105   1.388       .  A
C3565      C4104   1.375       .  A
C3565      C3566   1.402   1_556  A
C3565      H3569   1.080       .  S
C3566      C3567   1.485       .  A
C3567      H3570   1.082       .  S
H3568      C4103   1.083       .  S
C3571      C4036   1.558       .  S
C3571      C3572   1.409       .  A
C3571      C3576   1.484   1_556  A
C3572      C3573   1.385       .  A
C3572      H3577   1.082       .  S
C3573      C4149   1.522       .  S
C3573      C3574   1.402       .  A
C3574      C3575   1.425   1_556  A
C3574      H3578   1.083       .  S
C3575      C3576   1.487       .  A
C3576      H3579   1.080       .  S
C3580      C3581   1.407       .  A
C3580      C3585   1.504       .  A
C3581      C3582   1.378       .  A
C3581      H3586   1.077       .  S
C3582      C3593   1.534       .  S
C3582      C3583   1.381       .  A
C3583      C3584   1.417       .  A
C3583      H3587   1.080       .  S
C3584      C3585   1.503       .  A
C3585      H3588   1.081       .  S
C3589      C3590   1.378       .  A
C3589      C3594   1.390       .  A
C3589      H3596   1.075       .  S
C3590      C4131   1.387       .  A
C3591      C4130   1.382       .  A
C3591      C3592   1.402   1_556  A
C3591      C3598   1.478       .  S
C3592      C4133   1.408       .  A
C3592      H3597   1.073       .  S
C3593      C4132   1.403       .  A
C3593      C3594   1.417       .  A
C3594      C3595   1.463       .  S
C3595      H3599   1.107       .  S
C3595      H4140   1.097       .  S
C3595      H3601   1.112       .  S
C3598      H3602   1.101       .  S
C3598      H4143   1.105       .  S
C3598      H3604   1.076   1_556  S
H3600      C4135   1.096   1_554  S
H3603      C4138   1.110       .  S
C3605      C3606   1.418       .  A
C3605      C3610   1.412       .  A
C3605      H3612   1.082       .  S
C3606      C4147   1.391       .  A
C3607      C4146   1.369       .  A
C3607      C3608   1.373       .  A
C3607      C3614   1.526   1_556  S
C3608      C4149   1.409       .  A
C3608      H3613   1.044       .  S
C3609      C4113   1.529       .  S
C3609      C4148   1.400       .  A
C3609      C3610   1.413       .  A
C3610      C3611   1.501       .  S
C3611      H3615   1.107       .  S
C3611      H4156   1.104       .  S
C3611      H3617   1.111       .  S
C3614      H3618   1.107       .  S
C3614      H4159   1.103       .  S
C3614      H3620   1.090       .  S
H3616      C4151   1.108       .  S
H3619      C4154   1.096       .  S
C3621      C3622   1.379       .  A
C3621      C3626   1.386       .  A
C3621      H3628   1.087   1_556  S
C3622      C4163   1.411       .  A
C3623      C4162   1.413       .  A
C3623      C3624   1.407       .  A
C3623      C3630   1.475       .  S
C3624      C4165   1.401       .  A
C3624      H3629   1.084       .  S
C3625      C4104   1.516       .  S
C3625      C4164   1.395       .  A
C3625      C3626   1.441       .  A
C3626      C3627   1.499   1_556  S
C3627      H3631   1.106       .  S
C3627      H3632   1.108       .  S
C3627      H3633   1.082       .  S
C3630      H3634   1.097       .  S
C3630      H3635   1.100       .  S
C3630      H3636   1.102       .  S
C3637      C3638   1.419       .  A
C3637      C3642   1.420       .  A
C3637      H3644   1.081       .  S
C3638      C3639   1.397       .  A
C3639      C3640   1.381       .  A
C3639      C3646   1.502       .  S
C3640      C3641   1.391       .  A
C3640      H3645   1.054       .  S
C3641      C3642   1.410       .  A
C3642      C3643   1.498       .  S
C3643      H3647   1.110       .  S
C3643      H4188   1.099       .  S
C3643      H3649   1.107       .  S
C3646      H4190   1.072       .  S
C3646      H3651   1.093       .  S
C3646      H3652   1.104       .  S
H3648      C4183   1.105       .  S
H3650      C4186   1.078       .  S
C3653      C3658   1.359       .  A
C3653      H3660   1.070       .  S
C3654      C3655   1.450   1_545  A
C3655      C3656   1.381       .  A
C3655      C3662   1.516       .  S
C3656      C3657   1.370   1_565  A
C3656      H3661   1.089       .  S
C3658      C3659   1.510       .  S
C3659      H3663   1.108       .  S
C3659      H3665   1.105       .  S
C3662      H3666   1.103       .  S
C3662      H3668   1.107       .  S
C3669      C3670   1.424       .  A
C3669      C3674   1.423       .  A
C3669      H3676   1.082       .  S
C3671      C3672   1.355       .  A
C3671      C3678   1.527   1_455  S
C3672      H3677   1.056       .  S
C3673      C3674   1.410       .  A
C3674      C3675   1.503       .  S
C3675      H3679   1.111       .  S
C3675      H3680   1.110       .  S
C3675      H3681   1.108       .  S
C3678      H3682   1.106       .  S
C3678      H3683   1.110       .  S
C3678      H3684   1.099       .  S
C3685      C3690   1.408       .  A
C3685      H3692   1.083       .  S
C3686      C3687   1.417       .  A
C3687      C3688   1.392       .  A
C3687      C3694   1.543       .  S
C3688      C3689   1.396       .  A
C3688      H3693   1.079       .  S
C3690      C3691   1.499       .  S
C3691      H3695   1.103       .  S
C3691      H3697   1.101       .  S
C3694      H3698   1.043       .  S
C3694      H3700   1.096       .  S
C3701      C3702   1.401       .  A
C3701      C3706   1.360       .  A
C3701      H3708   1.057   1_455  S
C3703      C3704   1.422       .  A
C3703      C3710   1.501       .  S
C3704      H3709   1.080       .  S
C3705      C3706   1.393       .  A
C3706      C3707   1.511   1_455  S
C3707      H3711   1.103       .  S
C3707      H3712   1.111       .  S
C3707      H3713   1.105       .  S
C3710      H3714   1.110       .  S
C3710      H3715   1.110       .  S
C3710      H3716   1.111       .  S
C3717      C3718   1.428       .  A
C3717      C3722   1.430       .  A
C3717      H3724   1.073       .  S
C3719      C3720   1.417       .  A
C3719      C3726   1.477       .  S
C3720      H3725   1.083       .  S
C3721      C3722   1.386       .  A
C3722      C3723   1.514       .  S
C3723      H3727   1.110       .  S
C3723      H3729   1.101       .  S
C3726      H3730   1.110       .  S
C3726      H3732   1.099       .  S
C3733      C3734   1.428       .  A
C3733      C3738   1.363       .  A
C3733      H3740   1.044       .  S
C3735      C3736   1.404       .  A
C3735      C3742   1.493       .  S
C3736      H3741   1.083       .  S
C3737      C3738   1.374       .  A
C3738      C3739   1.524       .  S
C3739      H3743   1.111       .  S
C3739      H3744   1.108       .  S
C3739      H3745   1.111       .  S
C3742      H3746   1.103       .  S
C3742      H3747   1.098       .  S
C3742      H3748   1.099       .  S
C3749      C3754   1.412       .  A
C3749      H3756   1.069       .  S
C3750      C3751   1.435       .  A
C3751      C3752   1.416       .  A
C3751      C3758   1.482       .  S
C3752      C3753   1.401       .  A
C3752      H3757   1.082       .  S
C3754      C3755   1.484       .  S
C3755      H3759   1.104       .  S
C3755      H3761   1.108       .  S
C3758      H3762   1.096       .  S
C3758      H3764   1.079       .  S
C3765      C3766   1.381       .  A
C3765      C3770   1.381       .  A
C3765      H3772   1.043       .  S
C3767      C3768   1.437       .  A
C3767      C3774   1.501       .  S
C3768      H3773   1.080       .  S
C3769      C3770   1.382       .  A
C3770      C3771   1.516       .  S
C3771      H3775   1.074       .  S
C3771      H3776   1.086       .  S
C3771      H3777   1.102       .  S
C3774      H3778   1.108       .  S
C3774      H3779   1.110       .  S
C3774      H3780   1.110       .  S
O3781      C3792   1.264       .  A
O3782      C3793   1.252       .  A
O3783      C3794   1.290       .  A
O3784      C3795   1.322       .  A
O3785      C3795   1.282       .  A
O3785     Zr3819   2.439       .  S
O3786      C3794   1.324       .  A
O3787      C3793   1.277       .  A
O3788      C3792   1.303       .  A
O3788     Zr3789   2.513   1_655  S
Zr3789     O3791   2.284   1_455  S
O3790     Zr3816   2.381       .  S
C3795      C4258   1.532       .  S
H3796      O3797   0.956       .  S
H3798      O3799   0.960       .  S
O3799     Zr3819   2.382       .  S
O3800      C3823   1.269       .  A
O3801      C3824   1.285       .  A
O3802      C3825   1.286       .  A
O3802     Zr3818   2.390   1_565  S
O3803      C3826   1.259       .  A
O3804      C3827   1.279       .  A
O3804     Zr3819   2.472       .  S
O3805      C3828   1.309       .  A
O3806      C3829   1.283       .  A
O3807      C3830   1.285       .  A
O3808      C3829   1.281       .  A
O3808     Zr3818   2.369       .  S
O3809      C3830   1.305       .  A
O3811      C3828   1.264       .  A
O3811     Zr3817   2.302   1_556  S
O3813      C3826   1.265       .  A
O3813     Zr3816   2.401       .  S
O3814      C3823   1.282       .  A
O3814     Zr3820   2.414   1_565  S
O3815      C3824   1.265       .  A
Zr3817     O3832   2.342   1_554  S
Zr3818     O3822   2.373   1_545  S
Zr3820     O3834   2.265   1_545  S
C3824      C4210   1.396       .  S
C3825      C4130   1.462       .  S
C3826      C4162   1.466       .  S
C3827      C4178   1.459       .  S
C3828      C4146   1.435       .  S
C3829      C4197   1.442       .  S
C3830      C4229   1.516       .  S
H3831      O3832   0.964       .  S
H3833      O3834   0.963       .  S
C3835      C3846   1.579       .  S
C3835      C3836   1.413       .  A
C3835      C3840   1.481       .  A
C3836      C3837   1.408       .  A
C3836      H3841   1.085       .  S
C3837      C4306   1.515       .  S
C3837      C3838   1.389       .  A
C3838      C3839   1.412       .  A
C3838      H3842   1.078       .  S
C3839      C4039   1.564       .  S
C3839      C3840   1.477       .  A
C3840      H3843   1.079       .  S
O3844     Zr3856   2.480       .  S
O3845      C3846   1.310       .  A
O3845     Zr3882   2.566       .  S
O3847     Zr3859   2.535       .  S
O3848      C3849   1.292       .  A
O3848     Zr3883   2.472       .  S
C3849      C3960   1.536       .  S
O3850     Zr3859   2.518       .  S
O3851      C3852   1.328       .  A
O3851     Zr3882   2.600       .  S
C3852      C3951   1.592       .  S
O3853     Zr3856   2.453       .  S
O3854      C3855   1.329       .  A
O3854     Zr3883   2.593       .  S
Zr3856     O3862   2.331       .  S
Zr3856     O3863   2.340       .  S
Zr3856     O3857   2.423       .  S
Zr3856     O3858   2.388       .  S
O3857      H3900   0.989       .  S
O3858      H3899   0.985       .  S
O3858      H3903   0.985       .  S
Zr3859     O3863   2.354       .  S
Zr3859     O3862   2.333       .  S
Zr3859     O3860   2.460       .  S
Zr3859     O3861   2.469       .  S
O3860      H3901   0.988       .  S
O3860      H3904   0.990       .  S
O3861      H3894   0.992       .  S
O3863      H3890   0.964       .  S
O3864     Zr3876   2.555       .  S
O3865      C3866   1.318       .  A
O3865     Zr3883   2.542       .  S
O3867     Zr3879   2.476       .  S
O3868      C3869   1.317       .  A
O3868     Zr3882   2.543       .  S
C3869      C3942   1.555       .  S
O3870     Zr3879   2.487       .  S
O3871      C3872   1.300       .  A
O3871     Zr3883   2.507       .  S
C3872      C3933   1.531       .  S
O3873     Zr3876   2.470       .  S
O3874      C3875   1.307       .  A
O3874     Zr3882   2.484       .  S
C3875      C3924   1.505       .  S
Zr3876     O3884   2.360       .  S
Zr3876     O3885   2.374       .  S
Zr3876     O3877   2.438       .  S
Zr3876     O3878   2.423       .  S
O3877      H3897   0.990       .  S
O3877      H3902   0.989       .  S
O3878      H3898   0.989       .  S
Zr3879     O3885   2.338       .  S
Zr3879     O3884   2.350       .  S
Zr3879     O3880   2.419       .  S
Zr3879     O3881   2.359       .  S
O3880      H3896   0.990       .  S
O3881      H3895   0.986       .  S
O3881      H3905   0.988       .  S
Zr3882     O3887   2.377       .  S
Zr3882     O3888   2.418       .  S
Zr3883     O3886   2.383       .  S
Zr3883     O3889   2.433       .  S
O3884      H3892   0.965       .  S
O3887      H3891   0.957       .  S
O3888      H3893   0.960       .  S
C3906      C3907   1.403       .  A
C3906      C3911   1.477       .  A
C3907      C3908   1.387       .  A
C3907      H3912   1.083       .  S
C3908      C4293   1.524       .  S
C3908      C3909   1.409       .  A
C3909      C3910   1.421       .  A
C3909      H3913   1.083       .  S
C3910      C3977   1.558       .  S
C3910      C3911   1.471       .  A
C3911      H3914   1.082       .  S
C3915      C3916   1.399       .  A
C3915      C3920   1.526       .  A
C3916      C3917   1.368       .  A
C3916      H3921   1.082       .  S
C3917      C4274   1.503       .  S
C3917      C3918   1.372       .  A
C3918      C3919   1.408       .  A
C3918      H3922   1.073       .  S
C3919      C4033   1.598       .  S
C3919      C3920   1.509       .  A
C3920      H3923   1.082       .  S
C3924      C3925   1.412       .  A
C3924      C3929   1.458       .  A
C3925      C3926   1.382       .  A
C3925      H3930   1.083       .  S
C3926      C4261   1.531       .  S
C3926      C3927   1.412       .  A
C3927      C3928   1.414       .  A
C3927      H3931   1.080       .  S
C3928      C3971   1.537       .  S
C3928      C3929   1.452       .  A
C3929      H3932   1.082       .  S
C3933      C3934   1.415   1_655  A
C3933      C3938   1.459       .  A
C3934      C3935   1.392       .  A
C3934      H3939   1.085       .  S
C3935      C4242   1.507       .  S
C3935      C3936   1.397       .  A
C3936      C3937   1.419   1_455  A
C3936      H3940   1.084       .  S
C3937      C4053   1.533       .  S
C3937      C3938   1.465       .  A
C3938      H3941   1.082       .  S
C3942      C3943   1.406       .  A
C3942      C3947   1.460       .  A
C3943      C3944   1.403       .  A
C3943      H3948   1.083       .  S
C3944      C4226   1.518       .  S
C3944      C3945   1.403       .  A
C3945      C3946   1.411       .  A
C3945      H3949   1.083       .  S
C3946      C3947   1.473       .  A
C3947      H3950   1.073       .  S
C3951      C3952   1.415       .  A
C3951      C3956   1.501       .  A
C3952      C3953   1.401       .  A
C3952      H3957   1.083       .  S
C3953      C4213   1.497       .  S
C3953      C3954   1.414       .  A
C3954      C3955   1.419       .  A
C3954      H3958   1.085       .  S
C3955      C3956   1.498       .  A
C3956      H3959   1.081       .  S
C3960      C3961   1.407   1_565  A
C3960      C3965   1.478       .  A
C3961      C3962   1.378       .  A
C3961      H3966   1.080       .  S
C3962      C4194   1.520       .  S
C3962      C3963   1.373       .  A
C3963      C3964   1.399   1_545  A
C3963      H3967   1.085       .  S
C3964      C3997   1.531       .  S
C3964      C3965   1.482       .  A
C3965      H3968   1.081       .  S
O3969     Zr3981   2.461       .  S
O3970      C3971   1.302       .  A
O3970     Zr4007   2.496       .  S
O3972     Zr3984   2.456       .  S
O3973      C3974   1.297       .  A
O3973     Zr4008   2.560       .  S
C3974      C4124   1.563       .  S
O3975     Zr3984   2.434       .  S
O3976      C3977   1.325       .  A
O3976     Zr4007   2.615       .  S
O3978     Zr3981   2.501       .  S
O3979      C3980   1.311       .  A
O3979     Zr4008   2.513       .  S
Zr3981     O3987   2.369       .  S
Zr3981     O3988   2.359       .  S
Zr3981     O3982   2.436       .  S
Zr3981     O3983   2.427       .  S
O3982      H4025   0.990       .  S
O3983      H4024   0.987       .  S
O3983      H4028   0.990       .  S
Zr3984     O3988   2.373       .  S
Zr3984     O3987   2.330       .  S
Zr3984     O3985   2.419       .  S
Zr3984     O3986   2.462       .  S
O3985      H4026   0.988       .  S
O3985      H4029   0.988       .  S
O3986      H4019   0.989       .  S
O3988      H4015   0.964       .  S
O3989     Zr4001   2.473       .  S
O3990      C3991   1.311       .  A
O3990     Zr4008   2.578       .  S
O3992     Zr4004   2.548       .  S
O3993      C3994   1.300       .  A
O3993     Zr4007   2.527       .  S
C3994      C4115   1.562       .  S
O3995     Zr4004   2.491       .  S
O3996      C3997   1.285       .  A
O3996     Zr4008   2.475       .  S
O3998     Zr4001   2.512       .  S
O3999      C4000   1.322       .  A
O3999     Zr4007   2.578       .  S
C4000      C4093   1.578       .  S
Zr4001     O4009   2.347       .  S
Zr4001     O4010   2.301       .  S
Zr4001     O4002   2.416       .  S
Zr4001     O4003   2.326       .  S
O4002      H4022   0.982       .  S
O4002      H4027   0.985       .  S
O4003      H4023   0.982       .  S
Zr4004     O4010   2.320       .  S
Zr4004     O4009   2.355       .  S
Zr4004     O4005   2.424       .  S
Zr4004     O4006   2.408       .  S
O4005      H4021   0.989       .  S
O4006      H4020   0.987       .  S
O4006      H4030   0.969       .  S
Zr4007     O4012   2.372       .  S
Zr4007     O4013   2.426       .  S
Zr4008     O4011   2.459       .  S
Zr4008     O4014   2.436       .  S
O4009      H4017   0.964       .  S
O4012      H4016   0.961       .  S
O4013      H4018   0.960       .  S
O4031     Zr4043   2.512       .  S
O4032      C4033   1.305       .  A
O4032     Zr4069   2.584       .  S
O4034     Zr4046   2.503       .  S
O4035      C4036   1.315       .  A
O4035     Zr4070   2.536       .  S
O4037     Zr4046   2.483       .  S
O4038      C4039   1.310       .  A
O4038     Zr4069   2.560       .  S
O4040     Zr4043   2.513       .  S
O4041      C4042   1.287       .  A
O4041     Zr4070   2.507       .  S
C4042      C4120   1.554       .  S
Zr4043     O4049   2.339       .  S
Zr4043     O4050   2.368       .  S
Zr4043     O4044   2.427       .  S
Zr4043     O4045   2.436       .  S
O4044      H4087   0.988       .  S
O4045      H4086   0.986       .  S
O4045      H4090   0.983       .  S
Zr4046     O4050   2.357       .  S
Zr4046     O4049   2.350       .  S
Zr4046     O4047   2.428       .  S
Zr4046     O4048   2.378       .  S
O4047      H4088   0.989       .  S
O4047      H4091   0.989       .  S
O4048      H4081   0.986       .  S
O4050      H4077   0.964       .  S
O4051     Zr4063   2.491       .  S
O4052      C4053   1.298       .  A
O4052     Zr4070   2.501       .  S
O4054     Zr4066   2.541       .  S
O4055      C4056   1.315       .  A
O4055     Zr4069   2.536       .  S
C4056      C4097   1.566       .  S
O4057     Zr4066   2.582       .  S
O4058      C4059   1.305       .  A
O4058     Zr4070   2.582       .  S
O4060     Zr4063   2.460   1_554  S
O4061      C4062   1.280       .  A
O4061     Zr4069   2.535       .  S
C4062      C4106   1.552       .  S
Zr4063     O4071   2.323       .  S
Zr4063     O4072   2.363       .  S
Zr4063     O4064   2.436       .  S
Zr4063     O4065   2.440       .  S
O4064      H4084   0.989       .  S
O4064      H4089   0.988       .  S
O4065      H4085   0.989       .  S
Zr4066     O4072   2.359       .  S
Zr4066     O4071   2.354       .  S
Zr4066     O4067   2.443       .  S
Zr4066     O4068   2.385       .  S
O4067      H4083   0.990       .  S
O4068      H4082   0.984       .  S
O4068      H4092   0.987       .  S
Zr4069     O4074   2.404       .  S
Zr4069     O4075   2.488       .  S
Zr4070     O4073   2.412       .  S
Zr4070     O4076   2.426       .  S
O4071      H4079   0.958       .  S
O4074      H4078   0.967       .  S
O4075      H4080   0.964       .  S
C4093      C4094   1.423       .  A
C4093      C4098   1.487       .  A
C4094      C4095   1.411       .  A
C4094      H4099   1.082       .  S
C4095      C4181   1.523       .  S
C4095      C4096   1.390       .  A
C4096      C4097   1.410       .  A
C4096      H4100   1.080       .  S
C4097      C4098   1.478       .  A
C4098      H4101   1.081       .  S
C4102      C4103   1.408       .  A
C4102      C4107   1.482       .  A
C4105      C4106   1.408       .  A
C4105      H4109   1.069       .  S
C4106      C4107   1.478       .  A
C4107      H4110   1.081       .  S
C4111      C4112   1.410       .  A
C4111      C4116   1.477       .  A
C4112      C4113   1.386       .  A
C4112      H4117   1.082       .  S
C4113      C4114   1.403       .  A
C4114      C4115   1.425       .  A
C4114      H4118   1.083       .  S
C4115      C4116   1.480       .  A
C4116      H4119   1.081       .  S
C4120      C4121   1.406   1_556  A
C4120      C4125   1.497       .  A
C4121      C4122   1.376       .  A
C4121      H4126   1.075       .  S
C4122      C4133   1.533       .  S
C4122      C4123   1.377       .  A
C4123      C4124   1.415   1_554  A
C4123      H4127   1.080       .  S
C4124      C4125   1.495       .  A
C4125      H4128   1.081       .  S
C4129      C4130   1.375       .  A
C4129      C4134   1.386       .  A
C4129      H4136   1.078       .  S
C4131      C4132   1.401       .  A
C4131      C4138   1.476       .  S
C4132      H4137   1.072       .  S
C4133      C4134   1.424   1_554  A
C4134      C4135   1.469       .  S
C4135      H4139   1.107       .  S
C4135      H4141   1.109       .  S
C4138      H4142   1.100       .  S
C4138      H4144   1.078       .  S
C4145      C4146   1.414       .  A
C4145      C4150   1.409       .  A
C4145      H4152   1.073       .  S
C4147      C4148   1.395       .  A
C4147      C4154   1.518       .  S
C4148      H4153   1.049       .  S
C4149      C4150   1.418       .  A
C4150      C4151   1.501       .  S
C4151      H4155   1.110       .  S
C4151      H4157   1.110       .  S
C4154      H4158   1.107       .  S
C4154      H4160   1.080       .  S
C4161      C4162   1.380       .  A
C4161      C4166   1.375       .  A
C4161      H4168   1.085       .  S
C4163      C4164   1.399       .  A
C4163      C4170   1.460       .  S
C4164      H4169   1.084       .  S
C4165      C4166   1.422       .  A
C4166      C4167   1.473       .  S
C4167      H4171   1.100       .  S
C4167      H4172   1.109       .  S
C4167      H4173   1.083       .  S
C4170      H4174   1.100       .  S
C4170      H4175   1.108       .  S
C4170      H4176   1.109       .  S
C4177      C4178   1.415       .  A
C4177      C4182   1.416       .  A
C4177      H4184   1.081       .  S
C4178      C4179   1.402       .  A
C4179      C4180   1.377       .  A
C4179      C4186   1.517       .  S
C4180      C4181   1.394       .  A
C4180      H4185   1.055       .  S
C4181      C4182   1.413       .  A
C4182      C4183   1.501       .  S
C4183      H4187   1.110       .  S
C4183      H4189   1.107       .  S
C4186      H4191   1.094       .  S
C4186      H4192   1.104       .  S
C4193      C4198   1.407       .  A
C4193      H4200   1.053       .  S
C4194      C4195   1.453   1_545  A
C4195      C4196   1.378       .  A
C4195      C4202   1.519       .  S
C4196      C4197   1.367   1_565  A
C4196      H4201   1.089       .  S
C4198      C4199   1.498       .  S
C4199      H4203   1.053       .  S
C4199      H4205   1.101       .  S
C4202      H4206   1.104       .  S
C4202      H4208   1.107       .  S
C4209      C4210   1.435       .  A
C4209      C4214   1.430       .  A
C4209      H4216   1.070       .  S
C4211      C4212   1.335       .  A
C4211      C4218   1.521   1_455  S
C4212      H4217   1.082       .  S
C4213      C4214   1.407       .  A
C4214      C4215   1.491       .  S
C4215      H4219   1.110       .  S
C4215      H4220   1.111       .  S
C4215      H4221   1.102       .  S
C4218      H4222   1.105       .  S
C4218      H4223   1.100       .  S
C4218      H4224   1.102       .  S
C4225      C4230   1.422       .  A
C4225      H4232   1.082       .  S
C4226      C4227   1.401       .  A
C4227      C4228   1.419       .  A
C4227      C4234   1.501       .  S
C4228      C4229   1.422       .  A
C4228      H4233   1.081       .  S
C4230      C4231   1.511       .  S
C4231      H4235   1.111       .  S
C4231      H4237   1.102       .  S
C4234      H4238   1.109       .  S
C4234      H4240   1.108       .  S
C4241      C4242   1.398       .  A
C4241      C4246   1.356       .  A
C4241      H4248   1.055   1_455  S
C4243      C4244   1.419       .  A
C4243      C4250   1.503       .  S
C4244      H4249   1.076       .  S
C4245      C4246   1.391       .  A
C4246      C4247   1.508   1_455  S
C4247      H4251   1.101       .  S
C4247      H4252   1.111       .  S
C4247      H4253   1.099       .  S
C4250      H4254   1.110       .  S
C4250      H4255   1.110       .  S
C4250      H4256   1.111       .  S
C4257      C4258   1.431       .  A
C4257      C4262   1.430       .  A
C4257      H4264   1.078       .  S
C4259      C4260   1.420       .  A
C4259      C4266   1.478       .  S
C4260      H4265   1.083       .  S
C4261      C4262   1.388       .  A
C4262      C4263   1.515       .  S
C4263      H4267   1.109       .  S
C4263      H4269   1.101       .  S
C4266      H4270   1.111       .  S
C4266      H4272   1.094       .  S
C4273      C4274   1.426       .  A
C4273      C4278   1.359       .  A
C4273      H4280   1.040       .  S
C4275      C4276   1.399       .  A
C4275      C4282   1.490       .  S
C4276      H4281   1.081       .  S
C4277      C4278   1.371       .  A
C4278      C4279   1.528       .  S
C4279      H4283   1.109       .  S
C4279      H4284   1.108       .  S
C4279      H4285   1.111       .  S
C4282      H4286   1.101       .  S
C4282      H4287   1.098       .  S
C4282      H4288   1.100       .  S
C4289      C4294   1.418       .  A
C4289      H4296   1.058       .  S
C4290      C4291   1.432       .  A
C4291      C4292   1.416       .  A
C4291      C4298   1.488       .  S
C4292      C4293   1.404       .  A
C4292      H4297   1.082       .  S
C4294      C4295   1.491       .  S
C4295      H4299   1.106       .  S
C4295      H4301   1.107       .  S
C4298      H4302   1.092       .  S
C4298      H4304   1.096       .  S
C4305      C4306   1.385       .  A
C4305      C4310   1.386       .  A
C4305      H4312   1.081       .  S
C4307      C4308   1.446       .  A
C4307      C4314   1.500       .  S
C4308      H4313   1.083       .  S
C4309      C4310   1.384       .  A
C4310      C4311   1.521       .  S
C4311      H4315   1.071       .  S
C4311      H4316   1.101       .  S
C4311      H4317   1.104       .  S
C4314      H4318   1.105       .  S
C4314      H4319   1.110       .  S
C4314      H4320   1.111       .  S
