geometry optimzed in LAMMPS
_audit_creation_date              2020-12-01 
_audit_creation_method            'lammps2cif' 
_symmetry_space_group_name_H-M    'P1' 
_symmetry_Int_Tables_number       1 
_symmetry_cell_setting            triclinic 
loop_ 
_symmetry_equiv_pos_as_xyz 
  x,y,z 
_cell_length_a                    40.72583103 
_cell_length_b                    27.50288832484729 
_cell_length_c                    46.277948854175214 
_cell_angle_alpha                 89.71691829249993 
_cell_angle_beta                  89.87632653377858 
_cell_angle_gamma                 89.87187561036946 
loop_ 
_atom_site_label 
_atom_site_type_symbol 
_atom_site_fract_x 
_atom_site_fract_y 
_atom_site_fract_z 
_atom_site_charge 
N1          N  0.25808085  0.49968511  0.95631908    -0.35700
N2          N  0.24903921  0.42537382  0.00059475    -0.56200
N3          N  0.24364516  0.50101513  0.04308812    -0.35700
N4          N  0.24912530  0.57549104  0.99886874    -0.56200
C5          C  0.25132913  0.46022111  0.94007065     0.27900
C6          C  0.25355028  0.53930306  0.93933682     0.27900
C7          C  0.23442994  0.46158788  0.05863662     0.27900
C8          C  0.23269815  0.54069023  0.05732968     0.27900
C9          C  0.25803178  0.39719383  0.97812390     0.36500
C10         C  0.25326986  0.39817903  0.02468812     0.36500
C11         C  0.26107704  0.60218277  0.97669603     0.36500
C12         C  0.25221691  0.60312772  0.02271930     0.36500
C13         C  0.24236461  0.47497508  0.91247467    -0.20900
C14         C  0.24384974  0.52491272  0.91199395    -0.20900
C15         C  0.21694161  0.47628310  0.08282383    -0.20900
C16         C  0.21579824  0.52632128  0.08197126    -0.20900
C17         C  0.26781260  0.35173001  0.98787184    -0.22000
C18         C  0.26513718  0.35250564  0.01746691    -0.22000
C19         C  0.27168901  0.64703353  0.98642020    -0.22000
C20         C  0.26608895  0.64762673  0.01569251    -0.22000
C21         C  0.25552269  0.41128358  0.94887959    -0.17400
C22         C  0.25983914  0.58781729  0.94754879    -0.17400
C23         C  0.24121794  0.58916687  0.05042552    -0.17300
C24         C  0.24408499  0.41322663  0.05271879    -0.17300
H25         H  0.23583964  0.45211435  0.89441447     0.15600
H26         H  0.23858466  0.54795634  0.89354614     0.15600
H27         H  0.20675815  0.45337471  0.09966759     0.15600
H28         H  0.20474475  0.54955710  0.09812235     0.15600
H29         H  0.27601171  0.32125193  0.97500656     0.13800
H30         H  0.27085319  0.32260087  0.03188731     0.13800
H31         H  0.28216225  0.67630661  0.97371814     0.13800
H32         H  0.27154221  0.67739939  0.03009762     0.13800
H33         H  0.26885883  0.49944194  0.97667907     0.27100
H34         H  0.26057580  0.50106014  0.02624548     0.27100
O35         O  0.20220482  0.24634488  0.23432210    -0.56900
C36         C  0.29991300  0.22609346  0.22719551     0.75800
O37         O  0.24255455  0.13206029  0.17108672    -0.58000
C38         C  0.17543326  0.23351458  0.22283780     0.75700
C39         C  0.24224494  0.27491453  0.14750309     0.78100
Cd40       Cd  0.23853882  0.21054440  0.19712282     1.37500
O41         O  0.27277667  0.24060159  0.23749244    -0.56900
O42         O  0.23123190  0.23210574  0.14538466    -0.55700
C43         C  0.23856515  0.10589316  0.19341045     0.78100
O44         O  0.25184890  0.28742741  0.17231674    -0.58100
O45         O  0.29844135  0.20385329  0.20333711    -0.56500
O46         O  0.17787014  0.21069694  0.19929138    -0.56500
O47         O  0.23455508  0.12831015  0.21696114    -0.55700
O48         O  0.20331344  0.75387822  0.23035165    -0.56900
C49         C  0.30055096  0.77079651  0.22128913     0.75800
O50         O  0.25142786  0.71638197  0.16760300    -0.58000
C51         C  0.17649123  0.76888885  0.21975482     0.75700
C52         C  0.24080740  0.89559467  0.19217428     0.78100
Cd53       Cd  0.23887123  0.79120153  0.19327585     1.37500
O54         O  0.27341053  0.76290078  0.23391785    -0.56900
O55         O  0.23654632  0.87125473  0.21508410    -0.55700
C56         C  0.23950027  0.72858115  0.14344472     0.78100
O57         O  0.24484227  0.87138171  0.16920465    -0.58100
O58         O  0.29888616  0.78836393  0.19598765    -0.56500
O59         O  0.17861915  0.79329636  0.19660931    -0.56500
O60         O  0.22711644  0.77078795  0.14188925    -0.55700
O61         O  0.02327041  0.26188080  0.26646520    -0.56900
C62         C  0.42568915  0.26672693  0.28072022     0.75800
O63         O  0.98056776  0.27240621  0.35857201    -0.58000
C64         C  0.05032045  0.27434703  0.27771195     0.75700
C65         C  0.99004073  0.39719319  0.30779623     0.78100
Cd66       Cd  0.98851052  0.29220093  0.30644635     1.37500
O67         O  0.45272788  0.25416477  0.26946660    -0.56900
O68         O  0.98959025  0.37320540  0.28457752    -0.55700
C69         C  0.99353697  0.23062630  0.35711895     0.78100
O70         O  0.98977599  0.37246904  0.33096016    -0.58100
O71         O  0.42771802  0.29057527  0.30392574    -0.56500
O72         O  0.04854200  0.29511981  0.30202256    -0.56500
O73         O  0.00407975  0.21799730  0.33257317    -0.55700
O74         O  0.45261920  0.73881700  0.26298907    -0.56900
C75         C  0.05069929  0.73254157  0.27437284     0.75800
O76         O  0.48080704  0.73537670  0.35458386    -0.58000
C77         C  0.42587161  0.73376231  0.27664906     0.75700
C78         C  0.49085094  0.60795661  0.30664261     0.78100
Cd79       Cd  0.48909082  0.71310152  0.30309463     1.37500
O80         O  0.02371669  0.74784002  0.26413648    -0.56900
O81         O  0.48758365  0.63081219  0.28306107    -0.55700
C82         C  0.49355363  0.77719615  0.35242439     0.78100
O83         O  0.49356456  0.63381536  0.32907434    -0.58100
O84         O  0.04893502  0.70847346  0.29771776    -0.56500
O85         O  0.42841194  0.72041938  0.30273024    -0.56500
O86         O  0.50374568  0.78929380  0.32759687    -0.55700
N87         N  0.00462629  0.99624963  0.54469752    -0.35700
N88         N  0.00159813  0.92327738  0.49967475    -0.56200
N89         N  0.00099075  0.00076977  0.45680426    -0.35700
N90         N  0.99993001  0.07357919  0.50197780    -0.56200
C91         C  0.99700259  0.95596740  0.56014125     0.27900
C92         C  0.99777576  0.03509722  0.56146123     0.27900
C93         C  0.99437285  0.96167716  0.44023345     0.27900
C94         C  0.99201435  0.04080736  0.44165218     0.27900
C95         C  0.00908110  0.89460757  0.52253691     0.36500
C96         C  0.00870919  0.89723053  0.47578263     0.36500
C97         C  0.00873236  0.09971944  0.52533399     0.36500
C98         C  0.00512670  0.10249930  0.47874684     0.36500
C99         C  0.98485579  0.96944043  0.58698453    -0.20900
C100        C  0.98545969  0.01942289  0.58785145    -0.20900
C101        C  0.98088712  0.97701636  0.41422424    -0.20900
C102        C  0.97934677  0.02694328  0.41514081    -0.20900
C103        C  0.02092085  0.85010892  0.51315324    -0.22000
C104        C  0.02063503  0.85174981  0.48347796    -0.22000
C105        C  0.01951613  0.14541624  0.51692795    -0.22000
C106        C  0.01710899  0.14724122  0.48735383    -0.22000
C107        C  0.00375897  0.90756928  0.55166522    -0.17400
C108        C  0.00450758  0.08403652  0.55417873    -0.17400
C109        C  0.99794175  0.08946693  0.45001051    -0.17300
C110        C  0.00226077  0.91287618  0.44722960    -0.17300
H111        H  0.97696483  0.94568114  0.60436073     0.15600
H112        H  0.97802235  0.04165986  0.60596389     0.15600
H113        H  0.97334627  0.95464677  0.39625573     0.15600
H114        H  0.97054981  0.05041435  0.39797177     0.15600
H115        H  0.02887189  0.81962405  0.52627033     0.13800
H116        H  0.02820079  0.82273306  0.46920600     0.13800
H117        H  0.02795522  0.17452503  0.53067864     0.13800
H118        H  0.02355225  0.17791445  0.47376407     0.13800
H119        H  0.01784607  0.99711451  0.52526418     0.27100
H120        H  0.01480144  0.00037020  0.47584182     0.27100
O121        O  0.21777731  0.24751529  0.76895966    -0.56900
C122        C  0.31427869  0.22765262  0.77719863     0.75800
O123        O  0.24155117  0.23036906  0.85740811    -0.58000
C124        C  0.19072714  0.23358412  0.77957783     0.75700
C125        C  0.25658200  0.10419935  0.80787862     0.78100
Cd126      Cd  0.25283874  0.20918161  0.80613518     1.37500
O127        O  0.28717197  0.23993497  0.76583672    -0.56900
O128        O  0.25483900  0.12817041  0.78456461    -0.55700
C129        C  0.25507950  0.27170853  0.85612765     0.78100
O130        O  0.25604091  0.12881010  0.83094482    -0.58100
O131        O  0.31262416  0.20741998  0.80180360    -0.56500
O132        O  0.19244291  0.20882174  0.80261082    -0.56500
O133        O  0.26781716  0.28333352  0.83216903    -0.55700
O134        O  0.29751785  0.76422682  0.76320155    -0.56900
C135        C  0.19939593  0.76604166  0.77752989     0.75800
O136        O  0.25037089  0.76809023  0.85457416    -0.58000
C137        C  0.32430300  0.77572193  0.77529664     0.75700
C138        C  0.26195957  0.89406270  0.80712329     0.78100
Cd139      Cd  0.26187650  0.78987243  0.80375374     1.37500
O140        O  0.22629166  0.74983864  0.76768839    -0.56900
O141        O  0.25905041  0.87162360  0.78348067    -0.55700
C142        C  0.26418858  0.72688274  0.85380516     0.78100
O143        O  0.26503305  0.86806892  0.82962658    -0.58100
O144        O  0.20147091  0.79271402  0.79960273    -0.56500
O145        O  0.32194307  0.79417674  0.80021665    -0.56500
O146        O  0.27726373  0.71513241  0.83004675    -0.55700
O147        O  0.46624548  0.24875780  0.73249011    -0.56900
C148        C  0.06531260  0.27206564  0.72512437     0.75800
O149        O  0.49452644  0.26480780  0.64540410    -0.58000
C150        C  0.43974192  0.26516500  0.72192747     0.75700
C151        C  0.50363907  0.39136089  0.69319208     0.78100
Cd152      Cd  0.50321233  0.28720485  0.69646139     1.37500
O153        O  0.03817207  0.26484822  0.73789594    -0.56900
O154        O  0.50119734  0.36821255  0.71674311    -0.55700
C155        C  0.50643130  0.22240112  0.64777652     0.78100
O156        O  0.50648427  0.36606683  0.67049825    -0.58100
O157        O  0.06360026  0.28672240  0.69918393    -0.56500
O158        O  0.44263371  0.29096664  0.69940831    -0.56500
O159        O  0.51693053  0.21036266  0.67247843    -0.55700
O160        O  0.04652907  0.73605605  0.73578490    -0.56900
C161        C  0.44994890  0.73363206  0.72186601     0.75800
O162        O  0.02236465  0.78201721  0.66991004    -0.58000
C163        C  0.07370582  0.72426469  0.72444004     0.75700
C164        C  0.00843362  0.60132709  0.69321262     0.78100
Cd165      Cd  0.01170776  0.70606206  0.69595287     1.37500
O166        O  0.47679276  0.73873287  0.73530006    -0.56900
O167        O  0.99884241  0.62499255  0.71501720    -0.55700
C168        C  0.01175265  0.76850517  0.64560173     0.78100
O169        O  0.02005540  0.62617450  0.67250933    -0.58100
O170        O  0.45203799  0.71645572  0.69664268    -0.56500
O171        O  0.07210892  0.70332360  0.70018311    -0.56500
O172        O  0.00134551  0.72525257  0.64419212    -0.55700
C173        C  0.99466419  0.52226253  0.71672896    -0.20400
C174        C  0.00618874  0.54763762  0.69233825    -0.08400
C175        C  0.51555372  0.52114584  0.66767353     0.30500
C176        C  0.51397596  0.47032253  0.66780434    -0.20400
C177        C  0.50340398  0.44504854  0.69254619    -0.08400
C178        C  0.99332951  0.47159455  0.71694316     0.30500
F179        F  0.98210328  0.44872801  0.74107867    -0.18900
H180        H  0.98696277  0.54164102  0.73591182     0.18800
H181        H  0.52170291  0.45069814  0.64871863     0.18800
F182        F  0.52655922  0.54412665  0.64352726    -0.18900
C183        C  0.13806336  0.77298797  0.77621198    -0.20400
C184        C  0.16727310  0.75479776  0.76405375    -0.08400
C185        C  0.16531300  0.72623605  0.73897061     0.30500
C186        C  0.13486661  0.71652411  0.72633951    -0.20400
C187        C  0.10565689  0.73459766  0.73849191    -0.08400
C188        C  0.10755968  0.76289600  0.76372125     0.30500
F189        F  0.08005670  0.78122142  0.77626288    -0.18900
H190        H  0.13877587  0.79511182  0.79549715     0.18800
H191        H  0.13419314  0.69460605  0.70697188     0.18800
F192        F  0.19277438  0.70764440  0.72652410    -0.18900
C193        C  0.35807690  0.74910551  0.73300686    -0.20400
C194        C  0.35661091  0.76729895  0.76128416    -0.08400
C195        C  0.38622498  0.77600496  0.77608933     0.30500
C196        C  0.41642369  0.76541806  0.76305999    -0.20400
C197        C  0.41783955  0.74641015  0.73497172    -0.08400
C198        C  0.38826612  0.73892434  0.71989121     0.30500
F199        F  0.38834546  0.72127604  0.69254936    -0.18900
H200        H  0.33575204  0.74236075  0.72101288     0.18800
H201        H  0.43875425  0.77178499  0.77512161     0.18800
F202        F  0.38614468  0.79406717  0.80333036    -0.18900
C203        C  0.12678618  0.27205996  0.72437639    -0.20400
C204        C  0.09735160  0.26346895  0.73949912    -0.08800
C205        C  0.09903078  0.24578792  0.76806828     0.30500
C206        C  0.12945461  0.23677290  0.78099998    -0.20400
C207        C  0.15883360  0.24502944  0.76580790    -0.08400
C208        C  0.15722191  0.26293774  0.73730621     0.30500
F209        F  0.18496484  0.27042074  0.72160058    -0.18900
H210        H  0.12629388  0.28539491  0.70232130     0.18800
H211        H  0.12998284  0.22299873  0.80296286     0.18800
F212        F  0.07133960  0.23650755  0.78348008    -0.18900
C213        C  0.40569918  0.22742234  0.76091520    -0.20400
C214        C  0.40730939  0.25502118  0.73535756    -0.08400
C215        C  0.37785806  0.27306434  0.72335328     0.30500
C216        C  0.34768423  0.26363824  0.73685439    -0.20400
C217        C  0.34622268  0.23650560  0.76264774    -0.08400
C218        C  0.37564135  0.21829454  0.77447335     0.30500
F219        F  0.37553653  0.19156030  0.79919880    -0.18900
H220        H  0.42786647  0.21303158  0.77064952     0.18800
H221        H  0.32545811  0.27807367  0.72724217     0.18800
F222        F  0.37808695  0.30009735  0.69872790    -0.18900
C223        C  0.25567404  0.02408182  0.83391284    -0.20400
C224        C  0.25903188  0.05044253  0.80797155    -0.08400
C225        C  0.26456858  0.02485013  0.78211818     0.30500
C226        C  0.26559757  0.97415384  0.78220711    -0.20400
C227        C  0.26168437  0.94775716  0.80800953    -0.08400
C228        C  0.25710609  0.97319885  0.83402643     0.30500
F229        F  0.25331096  0.94904022  0.85945900    -0.18900
H230        H  0.25157999  0.04284768  0.85412631     0.18800
H231        H  0.26964144  0.95550288  0.76194026     0.18800
F232        F  0.26933029  0.04863415  0.75668626    -0.18900
C233        C  0.48899187  0.79441948  0.59769169    -0.20400
C234        C  0.01110850  0.80199313  0.62052006    -0.08400
C235        C  0.03157630  0.84312221  0.61978743     0.30500
C236        C  0.02952316  0.87627343  0.59695722    -0.20400
C237        C  0.00669443  0.86972592  0.57466681    -0.08400
C238        C  0.48651438  0.82823632  0.57505056     0.30500
F239        F  0.46391075  0.82112725  0.55398094    -0.18900
H240        H  0.47288489  0.76313342  0.59785473     0.18800
H241        H  0.04547330  0.90775202  0.59686801     0.18800
F242        F  0.05366601  0.85137571  0.64111846    -0.18900
C243        C  0.48422907  0.19307390  0.60091191    -0.20400
C244        C  0.50729055  0.18829092  0.62324813    -0.08400
C245        C  0.03000025  0.14960893  0.62243323     0.30500
C246        C  0.02932630  0.11629183  0.59970167    -0.20400
C247        C  0.50578783  0.12061491  0.57770997    -0.08400
C248        C  0.48315776  0.15921687  0.57853422     0.30500
F249        F  0.45948041  0.16335039  0.55807271    -0.18900
H250        H  0.46629690  0.22221227  0.60126464     0.18800
H251        H  0.04697898  0.08677382  0.59933182     0.18800
F252        F  0.05295948  0.14417518  0.64344113    -0.18900
C253        C  0.02003689  0.84781352  0.37672863    -0.20400
C254        C  0.49660002  0.81033007  0.37737912    -0.08400
C255        C  0.47604232  0.80564887  0.40171600     0.30500
C256        C  0.47861291  0.83836482  0.42462641    -0.20400
C257        C  0.50168804  0.87614893  0.42374126    -0.08400
C258        C  0.02271696  0.88033362  0.39973186     0.30500
F259        F  0.04542121  0.91636221  0.39837262    -0.18900
H260        H  0.03627989  0.85202090  0.35832431     0.18800
H261        H  0.46200188  0.83500040  0.44283917     0.18800
F262        F  0.45251515  0.77083746  0.40287500    -0.18900
C263        C  0.01897364  0.15938489  0.38178648    -0.20400
C264        C  0.99600779  0.19755008  0.38231954    -0.08400
C265        C  0.47481026  0.20185933  0.40626678     0.30500
C266        C  0.47554965  0.16689410  0.42840114    -0.20400
C267        C  0.99792601  0.12795700  0.42727929    -0.08400
C268        C  0.02022680  0.12528837  0.40417724     0.30500
F269        F  0.04305104  0.08928646  0.40321500    -0.18900
H270        H  0.03595566  0.15577040  0.36387432     0.18800
H271        H  0.45839799  0.16974265  0.44623830     0.18800
F272        F  0.45264280  0.23869667  0.40779379    -0.18900
C273        C  0.49178398  0.52802577  0.28147642    -0.20400
C274        C  0.49126213  0.55404717  0.30751830    -0.08400
C275        C  0.99054371  0.52799054  0.33378944     0.30500
C276        C  0.99032337  0.47703125  0.33378717    -0.20400
C277        C  0.99071595  0.45109906  0.30767696    -0.08400
C278        C  0.49147283  0.47727372  0.28144957     0.30500
F279        F  0.49172972  0.45402433  0.25563904    -0.18900
H280        H  0.49233097  0.54701595  0.26092065     0.18800
H281        H  0.98960585  0.45786268  0.35427758     0.18800
F282        F  0.98950570  0.55157430  0.35946515    -0.18900
C283        C  0.11191022  0.72687482  0.27355421    -0.20400
C284        C  0.08269425  0.74199389  0.26006685    -0.08400
C285        C  0.08464424  0.76577052  0.23309940     0.30500
C286        C  0.11518748  0.77410273  0.22011264    -0.20400
C287        C  0.14437996  0.75897999  0.23364620    -0.08400
C288        C  0.14241935  0.73522893  0.26059125     0.30500
F289        F  0.16992507  0.72037988  0.27463712    -0.18900
H290        H  0.11121650  0.70861151  0.29433395     0.18800
H291        H  0.11594554  0.79249147  0.19937165     0.18800
F292        F  0.05714397  0.78085234  0.21913942    -0.18900
C293        C  0.33383623  0.74861021  0.26489361    -0.20400
C294        C  0.33251112  0.76029049  0.23532078    -0.08400
C295        C  0.36202573  0.76212760  0.21945042     0.30500
C296        C  0.39210316  0.75348718  0.23307210    -0.20400
C297        C  0.39355389  0.74261457  0.26273789    -0.08400
C298        C  0.36396302  0.73983881  0.27853006     0.30500
F299        F  0.36401173  0.72903988  0.30718012    -0.18900
H300        H  0.31151197  0.74671218  0.27760954     0.18800
H301        H  0.41436406  0.75522753  0.22026573     0.18800
F302        F  0.36193648  0.77182558  0.19066221    -0.18900
C303        C  0.08376313  0.23498380  0.23882600    -0.20400
C304        C  0.08228406  0.26479596  0.26337111    -0.08400
C305        C  0.11165570  0.28448053  0.27423038     0.30500
C306        C  0.14165914  0.27449397  0.26074550    -0.20400
C307        C  0.14319888  0.24442154  0.23633736    -0.08400
C308        C  0.11384677  0.22456396  0.22551094     0.30500
F309        F  0.11415183  0.19425181  0.20245121    -0.18900
H310        H  0.06161592  0.21900829  0.23014222     0.18800
H311        H  0.16380743  0.29025066  0.26956714     0.18800
F312        F  0.11153994  0.31343580  0.29789553    -0.18900
C313        C  0.36098167  0.21716182  0.22956153    -0.20400
C314        C  0.33177322  0.23510265  0.24180094    -0.08400
C315        C  0.33370202  0.26244945  0.26740566     0.30500
C316        C  0.36423522  0.27213419  0.28000240    -0.20400
C317        C  0.39348602  0.25477604  0.26749078    -0.08400
C318        C  0.39146944  0.22674303  0.24217760     0.30500
F319        F  0.41890475  0.20866520  0.22942105    -0.18900
H320        H  0.36031656  0.19585154  0.20995406     0.18800
H321        H  0.36496270  0.29371143  0.29950427     0.18800
F322        F  0.30622395  0.28042457  0.28016137    -0.18900
C323        C  0.23681125  0.02567154  0.21847851    -0.20400
C324        C  0.23887877  0.05208824  0.19249431    -0.08400
C325        C  0.24154797  0.02652530  0.16628993     0.30500
C326        C  0.24255170  0.97565274  0.16634051    -0.20400
C327        C  0.24059992  0.94935661  0.19238689    -0.08400
C328        C  0.23762717  0.97498563  0.21853566     0.30500
F329        F  0.23553094  0.95129569  0.24428437    -0.18900
H330        H  0.23466405  0.04428473  0.23897042     0.18800
H331        H  0.24456912  0.95682381  0.14591073     0.18800
F332        F  0.24290622  0.05044217  0.14060005    -0.18900
C333        C  0.26270652  0.35125505  0.12432361    -0.20400
C334        C  0.24349033  0.30896409  0.12264643    -0.08400
C335        C  0.22492718  0.30068108  0.09751739     0.30500
C336        C  0.22485712  0.33488428  0.07505400    -0.20400
C337        C  0.24404308  0.37710207  0.07679455    -0.08400
C338        C  0.26330396  0.38476085  0.10152401     0.30500
F339        F  0.28285203  0.42453475  0.10350576    -0.18900
H340        H  0.27747674  0.35829770  0.14327806     0.18800
H341        H  0.20982264  0.32843158  0.05618250     0.18800
F342        F  0.20627830  0.26013357  0.09484484    -0.18900
C343        C  0.26126183  0.65419250  0.11988460    -0.20400
C344        C  0.24016414  0.69464294  0.11877171    -0.08400
C345        C  0.21953248  0.70080110  0.09461952     0.30500
C346        C  0.21982144  0.66646342  0.07234884    -0.20400
C347        C  0.24072345  0.62585529  0.07383162    -0.08400
C348        C  0.26166413  0.62024490  0.09763932     0.30500
F349        F  0.28264294  0.58189793  0.09925642    -0.18900
H350        H  0.27758368  0.64876368  0.13807221     0.18800
H351        H  0.20358926  0.67124884  0.05403745     0.18800
F352        F  0.19851769  0.73906927  0.09286733    -0.18900
C353        C  0.28118665  0.33969452  0.88286642    -0.20400
C354        C  0.25593835  0.30514485  0.88097397    -0.08400
C355        C  0.23114635  0.30452181  0.90220465     0.30500
C356        C  0.23155873  0.33837142  0.92467272    -0.20400
C357        C  0.25662343  0.37318181  0.92627746    -0.08400
C358        C  0.28167828  0.37326809  0.90539267     0.30500
F359        F  0.30629085  0.40640337  0.90658871    -0.18900
H360        H  0.30053533  0.34081967  0.86677936     0.18800
H361        H  0.21186379  0.33831436  0.94044510     0.18800
F362        F  0.20569488  0.27290449  0.90045638    -0.18900
C363        C  0.28825290  0.65658417  0.88082080    -0.20400
C364        C  0.26456239  0.69372541  0.87900276    -0.08400
C365        C  0.24051453  0.69736862  0.90076464     0.30500
C366        C  0.23956237  0.66336748  0.92325829    -0.20400
C367        C  0.26273483  0.62562560  0.92465999    -0.08400
C368        C  0.28754106  0.62297751  0.90358213     0.30500
F369        F  0.31074592  0.58751760  0.90486754    -0.18900
H370        H  0.30721383  0.65338197  0.86448588     0.18800
H371        H  0.22022627  0.66575991  0.93930629     0.18800
F372        F  0.21700515  0.73237339  0.89963490    -0.18900
N373        N  0.75807967  0.49968438  0.95631852    -0.35700
N374        N  0.74904215  0.42537233  0.00059454    -0.56200
N375        N  0.74365111  0.50101338  0.04308838    -0.35700
N376        N  0.74912687  0.57549019  0.99886852    -0.56200
C377        C  0.75132751  0.46022046  0.94007020     0.27900
C378        C  0.75354911  0.53930245  0.93933635     0.27900
C379        C  0.73443614  0.46158580  0.05863676     0.27900
C380        C  0.73270337  0.54068822  0.05732985     0.27900
C381        C  0.75803301  0.39719272  0.97812298     0.36500
C382        C  0.75327494  0.39817745  0.02468760     0.36500
C383        C  0.76107878  0.60218136  0.97669557     0.36500
C384        C  0.75222068  0.60312601  0.02271926     0.36500
C385        C  0.74236254  0.47497454  0.91247435    -0.20900
C386        C  0.74384782  0.52491223  0.91199365    -0.20900
C387        C  0.71694723  0.47628060  0.08282374    -0.20900
C388        C  0.71580330  0.52631875  0.08197121    -0.20900
C389        C  0.76781498  0.35172899  0.98787014    -0.22000
C390        C  0.76514219  0.35250441  0.01746546    -0.22000
C391        C  0.77169323  0.64703076  0.98641985    -0.22000
C392        C  0.76609429  0.64762386  0.01569239    -0.22000
C393        C  0.75552171  0.41128293  0.94887887    -0.17400
C394        C  0.75983933  0.58781647  0.94754818    -0.17400
C395        C  0.74122251  0.58916520  0.05042576    -0.17300
C396        C  0.74409128  0.41322450  0.05271875    -0.17300
H397        H  0.73583752  0.45211383  0.89441415     0.15600
H398        H  0.73858272  0.54795589  0.89354586     0.15600
H399        H  0.70676350  0.45337194  0.09966724     0.15600
H400        H  0.70474910  0.54955424  0.09812209     0.15600
H401        H  0.77601318  0.32125120  0.97500418     0.13800
H402        H  0.77085970  0.32259966  0.03188542     0.13800
H403        H  0.78216754  0.67630292  0.97371774     0.13800
H404        H  0.77154959  0.67739543  0.03009770     0.13800
H405        H  0.76885828  0.49944106  0.97667825     0.27100
H406        H  0.76058173  0.50105891  0.02624560     0.27100
O407        O  0.70220572  0.24634703  0.23432093    -0.56900
C408        C  0.79991391  0.22609132  0.22719619     0.75800
O409        O  0.74255118  0.13205857  0.17108815    -0.58000
C410        C  0.67543446  0.23351387  0.22283727     0.75700
C411        C  0.74224712  0.27491292  0.14750375     0.78100
Cd412      Cd  0.73854012  0.21054310  0.19712347     1.37500
O413        O  0.77277695  0.24059235  0.23749529    -0.56900
O414        O  0.73124018  0.23210084  0.14538385    -0.55700
C415        C  0.73856627  0.10589210  0.19341276     0.78100
O416        O  0.75184425  0.28742924  0.17231886    -0.58100
O417        O  0.79844320  0.20385881  0.20333521    -0.56500
O418        O  0.67787175  0.21069310  0.19929196    -0.56500
O419        O  0.73456056  0.12830975  0.21696378    -0.55700
O420        O  0.70331539  0.75387934  0.23035443    -0.56900
C421        C  0.80055196  0.77079425  0.22129177     0.75800
O422        O  0.75143045  0.71638047  0.16760452    -0.58000
C423        C  0.67649327  0.76889005  0.21975741     0.75700
C424        C  0.74080834  0.89559360  0.19217719     0.78100
Cd425      Cd  0.73887282  0.79120007  0.19327782     1.37500
O426        O  0.77341134  0.76289588  0.23391958    -0.56900
O427        O  0.73654207  0.87125336  0.21508613    -0.55700
C428        C  0.73950083  0.72857791  0.14344672     0.78100
O429        O  0.74484870  0.87138089  0.16920816    -0.58100
O430        O  0.79888757  0.78836489  0.19599105    -0.56500
O431        O  0.67862117  0.79329598  0.19661129    -0.56500
O432        O  0.72711494  0.77078348  0.14189177    -0.55700
O433        O  0.52327086  0.26188501  0.26646143    -0.56900
C434        C  0.92568863  0.26672712  0.28072242     0.75800
O435        O  0.48056372  0.27240135  0.35856943    -0.58000
C436        C  0.55032102  0.27434604  0.27770997     0.75700
C437        C  0.49004122  0.39719197  0.30779446     0.78100
Cd438      Cd  0.48851089  0.29219878  0.30644448     1.37500
O439        O  0.95272761  0.25417086  0.26946705    -0.56900
O440        O  0.48958326  0.37320438  0.28457580    -0.55700
C441        C  0.49353156  0.23062045  0.35711666     0.78100
O442        O  0.48978389  0.37246737  0.33095832    -0.58100
O443        O  0.92771709  0.29057080  0.30392965    -0.56500
O444        O  0.54854261  0.29511303  0.30202231    -0.56500
O445        O  0.50407616  0.21799188  0.33257138    -0.55700
O446        O  0.95261977  0.73882173  0.26299272    -0.56900
C447        C  0.55070059  0.73254507  0.27437473     0.75800
O448        O  0.98080869  0.73537881  0.35458535    -0.58000
C449        C  0.92587233  0.73376410  0.27665253     0.75700
C450        C  0.99085013  0.60795694  0.30664407     0.78100
Cd451      Cd  0.98909163  0.71310124  0.30309622     1.37500
O452        O  0.52371819  0.74784158  0.26413695    -0.56900
O453        O  0.98758042  0.63081237  0.28306274    -0.55700
C454        C  0.99355993  0.77719515  0.35242592     0.78100
O455        O  0.99356670  0.63381561  0.32907552    -0.58100
O456        O  0.54893551  0.70847821  0.29772005    -0.56500
O457        O  0.92841286  0.72041871  0.30273326    -0.56500
O458        O  0.00375400  0.78928977  0.32759856    -0.55700
N459        N  0.50460962  0.99624849  0.54469565    -0.35700
N460        N  0.50158130  0.92327466  0.49967508    -0.56200
N461        N  0.50097681  0.00076661  0.45680681    -0.35700
N462        N  0.49991256  0.07357766  0.50197814    -0.56200
C463        C  0.49698478  0.95596575  0.56014173     0.27900
C464        C  0.49775793  0.03509614  0.56146195     0.27900
C465        C  0.49435731  0.96167372  0.44023388     0.27900
C466        C  0.49199909  0.04080410  0.44165217     0.27900
C467        C  0.50906405  0.89460546  0.52253740     0.36500
C468        C  0.50869333  0.89722766  0.47578332     0.36500
C469        C  0.50871356  0.09971885  0.52533440     0.36500
C470        C  0.50510985  0.10249711  0.47874697     0.36500
C471        C  0.48483855  0.96943873  0.58698484    -0.20900
C472        C  0.48544239  0.01942134  0.58785191    -0.20900
C473        C  0.48087158  0.97701259  0.41422498    -0.20900
C474        C  0.47933158  0.02693957  0.41514120    -0.20900
C475        C  0.52090437  0.85010676  0.51315422    -0.22000
C476        C  0.52061933  0.85174722  0.48347898    -0.22000
C477        C  0.51949661  0.14541594  0.51692817    -0.22000
C478        C  0.51709075  0.14723986  0.48735391    -0.22000
C479        C  0.50374173  0.90756787  0.55166544    -0.17400
C480        C  0.50448992  0.08403546  0.55417931    -0.17400
C481        C  0.49792698  0.08946339  0.45001039    -0.17300
C482        C  0.50224595  0.91287330  0.44723028    -0.17300
H483        H  0.47694806  0.94567924  0.60436109     0.15600
H484        H  0.47800532  0.04165811  0.60596449     0.15600
H485        H  0.47333058  0.95464272  0.39625666     0.15600
H486        H  0.47053473  0.05041043  0.39797204     0.15600
H487        H  0.52885549  0.81962228  0.52627161     0.13800
H488        H  0.52818585  0.82273052  0.46920725     0.13800
H489        H  0.52793493  0.17452538  0.53067876     0.13800
H490        H  0.52353414  0.17791286  0.47376400     0.13800
H491        H  0.51782192  0.99711295  0.52527358     0.27100
H492        H  0.51478013  0.00036771  0.47583330     0.27100
O493        O  0.71777642  0.24750759  0.76895636    -0.56900
C494        C  0.81427689  0.22765328  0.77719600     0.75800
O495        O  0.74154548  0.23037458  0.85740469    -0.58000
C496        C  0.69072609  0.23358179  0.77957675     0.75700
C497        C  0.75658180  0.10420018  0.80787751     0.78100
Cd498      Cd  0.75283764  0.20918211  0.80613367     1.37500
O499        O  0.78717038  0.23994354  0.76583661    -0.56900
O500        O  0.75483096  0.12817042  0.78456366    -0.55700
C501        C  0.75507723  0.27171164  0.85612501     0.78100
O502        O  0.75604753  0.12881152  0.83094361    -0.58100
O503        O  0.81262222  0.20741318  0.80179879    -0.56500
O504        O  0.69244150  0.20882527  0.80261199    -0.56500
O505        O  0.76781907  0.28333335  0.83216754    -0.55700
O506        O  0.79751862  0.76422649  0.76319885    -0.56900
C507        C  0.69939774  0.76604356  0.77752658     0.75800
O508        O  0.75037178  0.76808981  0.85457266    -0.58000
C509        C  0.82430403  0.77571742  0.77529488     0.75700
C510        C  0.76196320  0.89406357  0.80712140     0.78100
Cd511      Cd  0.76187807  0.78987234  0.80375180     1.37500
O512        O  0.72629341  0.74983955  0.76768558    -0.56900
O513        O  0.75905427  0.87162453  0.78347875    -0.55700
C514        C  0.76418912  0.72688200  0.85380379     0.78100
O515        O  0.76503624  0.86806951  0.82962462    -0.58100
O516        O  0.70147270  0.79271597  0.79959941    -0.56500
O517        O  0.82194442  0.79416984  0.80021553    -0.56500
O518        O  0.77726386  0.71513141  0.83004524    -0.55700
O519        O  0.96624421  0.24875633  0.73248856    -0.56900
C520        C  0.56531256  0.27206724  0.72512351     0.75800
O521        O  0.99452876  0.26480701  0.64540300    -0.58000
C522        C  0.93974089  0.26516281  0.72192506     0.75700
C523        C  0.00364102  0.39135854  0.69319145     0.78100
Cd524      Cd  0.00321271  0.28720292  0.69646089     1.37500
O525        O  0.53817220  0.26485777  0.73789686    -0.56900
O526        O  0.00119913  0.36821048  0.71674260    -0.55700
C527        C  0.00643582  0.22240171  0.64777538     0.78100
O528        O  0.00648521  0.36606428  0.67049763    -0.58100
O529        O  0.56360004  0.28671639  0.69918156    -0.56500
O530        O  0.94263341  0.29096422  0.69940587    -0.56500
O531        O  0.01693454  0.21036366  0.67247749    -0.55700
O532        O  0.54652981  0.73605202  0.73578580    -0.56900
C533        C  0.94995046  0.73362716  0.72186562     0.75800
O534        O  0.52235888  0.78201901  0.66990906    -0.58000
C535        C  0.57370628  0.72426528  0.72443872     0.75700
C536        C  0.50843049  0.60132938  0.69321429     0.78100
Cd537      Cd  0.51170612  0.70606401  0.69595340     1.37500
O538        O  0.97679387  0.73872474  0.73530078    -0.56900
O539        O  0.49883965  0.62499515  0.71501889    -0.55700
C540        C  0.51174743  0.76850439  0.64560105     0.78100
O541        O  0.52005247  0.62617635  0.67251093    -0.58100
O542        O  0.95204016  0.71645563  0.69664116    -0.56500
O543        O  0.57210843  0.70332921  0.70018031    -0.56500
O544        O  0.50134322  0.72525020  0.64419210    -0.55700
C545        C  0.49466004  0.52226452  0.71673010    -0.20400
C546        C  0.50618515  0.54764001  0.69233975    -0.08400
C547        C  0.01555683  0.52114297  0.66767205     0.30500
C548        C  0.01397882  0.47031960  0.66780321    -0.20400
C549        C  0.00340703  0.44504615  0.69254536    -0.08400
C550        C  0.49332562  0.47159646  0.71694397     0.30500
F551        F  0.48209902  0.44872935  0.74107916    -0.18900
H552        H  0.48695817  0.54164272  0.73591293     0.18800
H553        H  0.02170519  0.45069477  0.64871748     0.18800
F554        F  0.02656176  0.54412332  0.64352543    -0.18900
C555        C  0.63806503  0.77298590  0.77621052    -0.20400
C556        C  0.66727488  0.75480012  0.76405024    -0.08400
C557        C  0.66531465  0.72624224  0.73896552     0.30500
C558        C  0.63486790  0.71652968  0.72633500    -0.20400
C559        C  0.60565800  0.73459838  0.73848976    -0.08400
C560        C  0.60756109  0.76289258  0.76372072     0.30500
F561        F  0.58005801  0.78121222  0.77626514    -0.18900
H562        H  0.63877758  0.79510653  0.79549700     0.18800
H563        H  0.63419425  0.69461478  0.70696611     0.18800
F564        F  0.69277620  0.70765488  0.72651701    -0.18900
C565        C  0.85807823  0.74909681  0.73300613    -0.20400
C566        C  0.85661193  0.76729282  0.76128283    -0.08400
C567        C  0.88622580  0.77600061  0.77608791     0.30500
C568        C  0.91642467  0.76541351  0.76305903    -0.20400
C569        C  0.91784089  0.74640383  0.73497124    -0.08400
C570        C  0.88826768  0.73891553  0.71989088     0.30500
F571        F  0.88834748  0.72126457  0.69254965    -0.18900
H572        H  0.83575351  0.74235028  0.72101230     0.18800
H573        H  0.93875510  0.77178238  0.77512049     0.18800
F574        F  0.88614516  0.79406576  0.80332824    -0.18900
C575        C  0.62678595  0.27204441  0.72437199    -0.20400
C576        C  0.59735145  0.26346979  0.73949805    -0.08800
C577        C  0.59903041  0.24580418  0.76807058     0.30500
C578        C  0.62945404  0.23678706  0.78100214    -0.20400
C579        C  0.65883284  0.24502728  0.76580671    -0.08400
C580        C  0.65722140  0.26292091  0.73730186     0.30500
F581        F  0.68496421  0.27038813  0.72159342    -0.18900
H582        H  0.62629374  0.28536742  0.70231439     0.18800
H583        H  0.62998228  0.22302501  0.80296767     0.18800
F584        F  0.57133915  0.23654200  0.78348614    -0.18900
C585        C  0.90569750  0.22742268  0.76091313    -0.20400
C586        C  0.90730797  0.25501881  0.73535450    -0.08400
C587        C  0.87785658  0.27305920  0.72334881     0.30500
C588        C  0.84768263  0.26363515  0.73685038    -0.20400
C589        C  0.84622091  0.23650540  0.76264483    -0.08400
C590        C  0.87563953  0.21829533  0.77447109     0.30500
F591        F  0.87553462  0.19156265  0.79919714    -0.18900
H592        H  0.92786474  0.21303348  0.77064835     0.18800
H593        H  0.82545651  0.27806886  0.72723726     0.18800
F594        F  0.87808548  0.30008656  0.69872126    -0.18900
C595        C  0.75567642  0.02408247  0.83391153    -0.20400
C596        C  0.75903299  0.05044354  0.80797029    -0.08400
C597        C  0.76456971  0.02485173  0.78211674     0.30500
C598        C  0.76559987  0.97415542  0.78220544    -0.20400
C599        C  0.76168767  0.94775820  0.80800782    -0.08400
C600        C  0.75710928  0.97319953  0.83402487     0.30500
F601        F  0.75331449  0.94904052  0.85945734    -0.18900
H602        H  0.75158227  0.04284801  0.85412509     0.18800
H603        H  0.76964370  0.95550487  0.76193845     0.18800
F604        F  0.76933074  0.04863651  0.75668495    -0.18900
C605        C  0.98900334  0.79442105  0.59769023    -0.20400
C606        C  0.51110023  0.80199157  0.62051914    -0.08400
C607        C  0.53156774  0.84312082  0.61978453     0.30500
C608        C  0.52951102  0.87627262  0.59695493    -0.20400
C609        C  0.50667920  0.86972520  0.57466706    -0.08400
C610        C  0.98652923  0.82823743  0.57504861     0.30500
F611        F  0.96392812  0.82112848  0.55397690    -0.18900
H612        H  0.97289618  0.76313520  0.59785165     0.18800
H613        H  0.54546111  0.90775129  0.59686409     0.18800
F614        F  0.55366070  0.85137379  0.64111298    -0.18900
C615        C  0.98423927  0.19307413  0.60090870    -0.20400
C616        C  0.00729860  0.18829249  0.62324675    -0.08400
C617        C  0.52999072  0.14960556  0.62243292     0.30500
C618        C  0.52931329  0.11628830  0.59970135    -0.20400
C619        C  0.00580275  0.12061671  0.57770872    -0.08400
C620        C  0.98317134  0.15921698  0.57853102     0.30500
F621        F  0.95949579  0.16334829  0.55806771    -0.18900
H622        H  0.96630609  0.22221120  0.60126009     0.18800
H623        H  0.54696506  0.08676915  0.59933012     0.18800
F624        F  0.55295210  0.14417057  0.64343890    -0.18900
C625        C  0.52002718  0.84781533  0.37672904    -0.20400
C626        C  0.99660893  0.81032938  0.37738033    -0.08400
C627        C  0.97605241  0.80565058  0.40171816     0.30500
C628        C  0.97862491  0.83836778  0.42462778    -0.20400
C629        C  0.00170068  0.87615102  0.42374093    -0.08400
C630        C  0.52270560  0.88033382  0.39973321     0.30500
F631        F  0.54540965  0.91636291  0.39837605    -0.18900
H632        H  0.53627109  0.85202435  0.35832547     0.18800
H633        H  0.96201483  0.83500501  0.44284133     0.18800
F634        F  0.95252454  0.77084034  0.40287887    -0.18900
C635        C  0.51896561  0.15937874  0.38178676    -0.20400
C636        C  0.49599902  0.19754315  0.38231717    -0.08400
C637        C  0.97482253  0.20186700  0.40627148     0.30500
C638        C  0.97556388  0.16690073  0.42840522    -0.20400
C639        C  0.49791319  0.12795205  0.42727831    -0.08400
C640        C  0.52021679  0.12528322  0.40417830     0.30500
F641        F  0.54304217  0.08928260  0.40321907    -0.18900
H642        H  0.53595007  0.15576462  0.36387637     0.18800
H643        H  0.95841471  0.16974961  0.44624423     0.18800
F644        F  0.95265639  0.23870580  0.40780128    -0.18900
C645        C  0.99178431  0.52802633  0.28147802    -0.20400
C646        C  0.99126104  0.55404775  0.30751984    -0.08400
C647        C  0.49054611  0.52798964  0.33378785     0.30500
C648        C  0.49032577  0.47703025  0.33378547    -0.20400
C649        C  0.49071662  0.45109809  0.30767522    -0.08400
C650        C  0.99147362  0.47727439  0.28145127     0.30500
F651        F  0.99173203  0.45402479  0.25564082    -0.18900
H652        H  0.99233235  0.54701643  0.26092223     0.18800
H653        H  0.48960931  0.45786156  0.35427586     0.18800
F654        F  0.48950949  0.55157315  0.35946368    -0.18900
C655        C  0.61191194  0.72688119  0.27355798    -0.20400
C656        C  0.58269601  0.74199767  0.26006948    -0.08400
C657        C  0.58464627  0.76577096  0.23310101     0.30500
C658        C  0.61518964  0.77410320  0.22011458    -0.20400
C659        C  0.64438201  0.75898273  0.23364911    -0.08400
C660        C  0.64242124  0.73523460  0.26059506     0.30500
F661        F  0.66992696  0.72038742  0.27464164    -0.18900
H662        H  0.61121799  0.70862006  0.29433839     0.18800
H663        H  0.61594781  0.79248938  0.19937279     0.18800
F664        F  0.55714605  0.78084846  0.21913935    -0.18900
C665        C  0.83383664  0.74860385  0.26489596    -0.20400
C666        C  0.83251194  0.76028798  0.23532362    -0.08400
C667        C  0.86202688  0.76212931  0.21945393     0.30500
C668        C  0.89210424  0.75349069  0.23307595    -0.20400
C669        C  0.89355460  0.74261508  0.26274135    -0.08400
C670        C  0.86396343  0.73983376  0.27853271     0.30500
F671        F  0.86401185  0.72903044  0.30718221    -0.18900
H672        H  0.81151208  0.74670191  0.27761126     0.18800
H673        H  0.91436539  0.75523465  0.22027009     0.18800
F674        F  0.86193806  0.77182973  0.19066600    -0.18900
C675        C  0.58376415  0.23498363  0.23882405    -0.20400
C676        C  0.58228474  0.26479545  0.26336929    -0.08400
C677        C  0.61165621  0.28447967  0.27422911     0.30500
C678        C  0.64165983  0.27449341  0.26074451    -0.20400
C679        C  0.64319994  0.24442103  0.23633637    -0.08400
C680        C  0.61384804  0.22456343  0.22550956     0.30500
F681        F  0.61415358  0.19425075  0.20245007    -0.18900
H682        H  0.56161706  0.21900822  0.23013998     0.18800
H683        H  0.66380798  0.29024993  0.26956652     0.18800
F684        F  0.61154005  0.31343426  0.29789455    -0.18900
C685        C  0.86098285  0.21716514  0.22956112    -0.20400
C686        C  0.83177372  0.23510013  0.24180220    -0.08400
C687        C  0.83370137  0.26244094  0.26740926     0.30500
C688        C  0.86423424  0.27212663  0.28000636    -0.20400
C689        C  0.89348576  0.25477482  0.26749292    -0.08400
C690        C  0.89147023  0.22674675  0.24217773     0.30500
F691        F  0.91890621  0.20867404  0.22941973    -0.18900
H692        H  0.86031856  0.19585910  0.20995199     0.18800
H693        H  0.86496091  0.29369962  0.29950992     0.18800
F694        F  0.80622244  0.28040943  0.28016687    -0.18900
C695        C  0.73680635  0.02567066  0.21848094    -0.20400
C696        C  0.73887976  0.05208720  0.19249702    -0.08400
C697        C  0.74155500  0.02652412  0.16629316     0.30500
C698        C  0.74255855  0.97565164  0.16634397    -0.20400
C699        C  0.74060068  0.94935558  0.19238998    -0.08400
C700        C  0.73762211  0.97498467  0.21853826     0.30500
F701        F  0.73552023  0.95129480  0.24428664    -0.18900
H702        H  0.73465443  0.04428396  0.23897244     0.18800
H703        H  0.74458089  0.95682272  0.14591455     0.18800
F704        F  0.74292037  0.05044083  0.14060353    -0.18900
C705        C  0.76270776  0.35125493  0.12432560    -0.20400
C706        C  0.74349358  0.30896220  0.12264700    -0.08400
C707        C  0.72493369  0.30067701  0.09751639     0.30500
C708        C  0.72486487  0.33487976  0.07505269    -0.20400
C709        C  0.74404907  0.37709930  0.07679445    -0.08400
C710        C  0.76330673  0.38476014  0.10152571     0.30500
F711        F  0.78285304  0.42453568  0.10350911    -0.18900
H712        H  0.77747541  0.35829930  0.14328137     0.18800
H713        H  0.70983243  0.32842554  0.05618013     0.18800
F714        F  0.70628634  0.26012815  0.09484279    -0.18900
C715        C  0.76126331  0.65418944  0.11988644    -0.20400
C716        C  0.74016525  0.69463953  0.11877355    -0.08400
C717        C  0.71953465  0.70079812  0.09462066     0.30500
C718        C  0.71982515  0.66646152  0.07234929    -0.20400
C719        C  0.74072756  0.62585376  0.07383203    -0.08400
C720        C  0.76166716  0.62024293  0.09764049     0.30500
F721        F  0.78264645  0.58189656  0.09925768    -0.18900
H722        H  0.77758444  0.64876017  0.13807450     0.18800
H723        H  0.70359366  0.67124734  0.05403746     0.18800
F724        F  0.69851961  0.73906596  0.09286826    -0.18900
C725        C  0.78118683  0.33969269  0.88286666    -0.20400
C726        C  0.75593551  0.30514835  0.88097116    -0.08400
C727        C  0.73114064  0.30452967  0.90219929     0.30500
C728        C  0.73155379  0.33837727  0.92466843    -0.20400
C729        C  0.75662177  0.37318189  0.92627639    -0.08400
C730        C  0.78167892  0.37326471  0.90539377     0.30500
F731        F  0.80629431  0.40639502  0.90659292    -0.18900
H732        H  0.80053762  0.34081460  0.86678150     0.18800
H733        H  0.71185695  0.33832352  0.94043896     0.18800
F734        F  0.70568595  0.27291861  0.90044745    -0.18900
C735        C  0.78825164  0.65658029  0.88081824    -0.20400
C736        C  0.76456316  0.69372467  0.87900164    -0.08400
C737        C  0.74051778  0.69737137  0.90076545     0.30500
C738        C  0.73956542  0.66337013  0.92325913    -0.20400
C739        C  0.76273555  0.62562489  0.92465927    -0.08400
C740        C  0.78753994  0.62297392  0.90357981     0.30500
F741        F  0.81074326  0.58751166  0.90486398    -0.18900
H742        H  0.80721096  0.65337547  0.86448206     0.18800
H743        H  0.72023094  0.66576532  0.93930849     0.18800
F744        F  0.71701098  0.73238011  0.89963785    -0.18900
loop_ 
_geom_bond_atom_site_label_1 
_geom_bond_atom_site_label_2 
_geom_bond_distance 
_geom_bond_site_symmetry_2 
_ccdc_geom_bond_type 
N1            C6   1.353       .  A
N1            C5   1.353       .  A
N1           H33   1.040       .  S
N2            C9   1.350   1_554  A
N2           C10   1.351       .  A
N3            C8   1.352       .  A
N3            C7   1.352       .  A
N3           H34   1.040       .  S
N4           C11   1.349       .  A
N4           C12   1.350   1_556  A
C5           C13   1.387       .  A
C5           C21   1.414       .  A
C6           C22   1.413       .  A
C6           C14   1.386       .  A
C7           C15   1.387       .  A
C7           C24   1.414       .  A
C8           C23   1.413       .  A
C8           C16   1.387       .  A
C9           C21   1.410       .  A
C9           C17   1.385       .  A
C10          C24   1.413       .  A
C10          C18   1.387       .  A
C11          C19   1.385       .  A
C11          C22   1.408       .  A
C12          C20   1.386       .  A
C12          C23   1.409       .  A
C13          C14   1.375       .  A
C13          H25   1.082       .  S
C14          H26   1.082       .  S
C15          C16   1.377       .  A
C15          H27   1.082       .  S
C16          H28   1.082       .  S
C17          C18   1.374   1_556  A
C17          H29   1.082       .  S
C18          H30   1.082       .  S
C19          C20   1.373   1_556  A
C19          H31   1.082       .  S
C20          H32   1.082       .  S
C21         C357   1.485       .  S
C22         C367   1.485       .  S
C23         C347   1.484       .  S
C24         C337   1.489       .  S
O35          C38   1.266       .  A
O35         Cd40   2.474       .  S
C36         C314   1.486       .  S
C36          O45   1.266       .  A
C36          O41   1.267       .  A
O37          C43   1.267       .  A
O37         Cd40   2.482       .  S
C38         C307   1.483       .  S
C38          O46   1.264       .  A
C39         C334   1.481       .  S
C39          O44   1.264       .  A
C39          O42   1.265       .  A
Cd40         O47   2.442       .  S
Cd40         O46   2.473       .  S
Cd40         O45   2.463       .  S
Cd40         O41   2.480       .  S
Cd40         O44   2.462       .  S
Cd40         O42   2.482       .  S
C43         C324   1.481       .  S
C43          O47   1.265       .  A
O48          C51   1.266       .  A
O48         Cd53   2.464       .  S
C49         C294   1.483       .  S
C49          O58   1.266       .  A
C49          O54   1.268       .  A
O50          C56   1.263       .  A
O50         Cd53   2.434       .  S
C51         C287   1.481       .  S
C51          O59   1.264       .  A
C52         C327   1.479       .  S
C52          O57   1.267       .  A
C52          O55   1.263       .  A
Cd53         O60   2.494       .  S
Cd53         O59   2.459       .  S
Cd53         O58   2.449       .  S
Cd53         O54   2.473       .  S
Cd53         O57   2.478       .  S
Cd53         O55   2.428       .  S
C56         C344   1.479       .  S
C56          O60   1.266       .  A
O61          C64   1.268       .  A
O61         Cd66   2.474   1_455  S
C62         C317   1.487       .  S
C62          O71   1.264       .  A
C62          O67   1.265       .  A
O63          C69   1.266       .  A
O63         Cd66   2.491       .  S
C64         C304   1.483       .  S
C64          O72   1.266       .  A
C65         C277   1.483       .  S
C65          O70   1.267       .  A
C65          O68   1.264       .  A
Cd66         O73   2.450   1_655  S
Cd66         O72   2.454   1_655  S
Cd66         O70   2.488       .  S
Cd66         O68   2.443       .  S
Cd66        O443   2.479       .  S
Cd66        O439   2.486       .  S
O67        Cd438   2.486       .  S
C69         C264   1.479       .  S
C69          O73   1.264   1_655  A
O71        Cd438   2.479       .  S
O74          C77   1.266       .  A
O74         Cd79   2.479       .  S
C75         C284   1.483       .  S
C75          O84   1.266       .  A
C75          O80   1.268       .  A
O76          C82   1.266       .  A
O76         Cd79   2.485       .  S
C77         C297   1.485       .  S
C77          O85   1.264       .  A
C78         C274   1.483       .  S
C78          O83   1.266       .  A
C78          O81   1.264       .  A
Cd79         O86   2.463       .  S
Cd79         O85   2.479       .  S
Cd79         O83   2.491       .  S
Cd79         O81   2.451       .  S
Cd79        O456   2.452       .  S
Cd79        O452   2.476       .  S
O80        Cd451   2.476   1_455  S
C82         C254   1.480       .  S
C82          O86   1.264       .  A
O84        Cd451   2.452   1_455  S
N87          C92   1.352   1_465  A
N87          C91   1.352   1_455  A
N87         H119   1.047       .  S
N88          C95   1.351       .  A
N88          C96   1.351       .  A
N89          C94   1.353   1_455  A
N89          C93   1.352   1_445  A
N89         H120   1.046       .  S
N90          C97   1.351   1_655  A
N90          C98   1.351   1_655  A
C91          C99   1.388       .  A
C91         C107   1.416   1_655  A
C92         C108   1.413   1_655  A
C92         C100   1.386       .  A
C93         C101   1.388       .  A
C93         C110   1.416   1_655  A
C94         C109   1.416       .  A
C94         C102   1.387       .  A
C95         C107   1.412       .  A
C95         C103   1.386       .  A
C96         C110   1.413       .  A
C96         C104   1.386       .  A
C97         C105   1.386       .  A
C97         C108   1.411       .  A
C98         C106   1.385       .  A
C98         C109   1.410   1_455  A
C99         C100   1.376   1_565  A
C99         H111   1.082       .  S
C100        H112   1.082       .  S
C101        C102   1.375   1_565  A
C101        H113   1.082       .  S
C102        H114   1.082       .  S
C103        C104   1.374       .  A
C103        H115   1.082       .  S
C104        H116   1.082       .  S
C105        C106   1.373       .  A
C105        H117   1.082       .  S
C106        H118   1.082       .  S
C107        C237   1.490       .  S
C108        C619   1.487       .  S
C109        C267   1.489       .  S
C110        C629   1.488       .  S
O121        C124   1.265       .  A
O121       Cd126   2.469       .  S
C122        C217   1.484       .  S
C122        O131   1.267       .  A
C122        O127   1.268       .  A
O123        C129   1.266       .  A
O123       Cd126   2.488       .  S
C124        C207   1.481       .  S
C124        O132   1.264       .  A
C125        C224   1.482       .  S
C125        O130   1.267       .  A
C125        O128   1.264       .  A
Cd126       O133   2.453       .  S
Cd126       O132   2.465       .  S
Cd126       O131   2.443       .  S
Cd126       O127   2.475       .  S
Cd126       O130   2.489       .  S
Cd126       O128   2.447       .  S
C129        C354   1.476       .  S
C129        O133   1.263       .  A
O134        C137   1.269       .  A
O134       Cd139   2.474       .  S
C135        C184   1.484       .  S
C135        O144   1.264       .  A
C135        O140   1.266       .  A
O136        C142   1.265       .  A
O136       Cd139   2.468       .  S
C137        C194   1.484       .  S
C137        O145   1.266       .  A
C138        C227   1.478       .  S
C138        O143   1.267       .  A
C138        O141   1.265       .  A
Cd139       O146   2.464       .  S
Cd139       O145   2.454       .  S
Cd139       O144   2.469       .  S
Cd139       O140   2.477       .  S
Cd139       O143   2.470       .  S
Cd139       O141   2.435       .  S
C142        C364   1.477       .  S
C142        O146   1.264       .  A
O147        C150   1.267       .  A
O147       Cd152   2.479       .  S
C148        C204   1.484       .  S
C148        O157   1.266       .  A
C148        O153   1.268       .  A
O149        C155   1.266       .  A
O149       Cd152   2.471       .  S
C150        C214   1.485       .  S
C150        O158   1.263       .  A
C151        C177   1.477       .  S
C151        O156   1.268       .  A
C151        O154   1.263       .  A
Cd152       O159   2.455       .  S
Cd152       O158   2.473       .  S
Cd152       O156   2.478       .  S
Cd152       O154   2.423       .  S
Cd152       O529   2.463       .  S
Cd152       O525   2.465       .  S
O153       Cd524   2.465       .  S
C155        C244   1.476       .  S
C155        O159   1.264       .  A
O157       Cd524   2.463       .  S
O160        C163   1.266       .  A
O160       Cd165   2.474       .  S
C161        C197   1.483       .  S
C161        O170   1.264       .  A
C161        O166   1.267       .  A
O162        C168   1.264       .  A
O162       Cd165   2.446       .  S
C163        C187   1.485       .  S
C163        O171   1.266       .  A
C164        C174   1.480       .  S
C164        O169   1.266       .  A
C164        O167   1.264   1_455  A
Cd165       O172   2.487       .  S
Cd165       O171   2.469       .  S
Cd165       O169   2.478       .  S
Cd165       O167   2.451   1_455  S
Cd165       O542   2.446   1_455  S
Cd165       O538   2.479   1_455  S
O166       Cd537   2.479       .  S
C168        C234   1.478       .  S
C168        O172   1.266       .  A
O170       Cd537   2.446       .  S
C173        C174   1.405   1_655  A
C173        C178   1.395       .  A
C173        H180   1.083       .  S
C174        C547   1.409       .  A
C175        C176   1.399       .  A
C175        C546   1.409       .  A
C175        F182   1.357       .  S
C176        C177   1.404       .  A
C176        H181   1.083       .  S
C177        C550   1.408       .  A
C178        C549   1.408   1_655  A
C178        F179   1.358       .  S
C183        C184   1.407       .  A
C183        C188   1.400       .  A
C183        H190   1.083       .  S
C184        C185   1.407       .  A
C185        C186   1.399       .  A
C185        F192   1.357       .  S
C186        C187   1.406       .  A
C186        H191   1.083       .  S
C187        C188   1.409       .  A
C188        F189   1.358       .  S
C193        C194   1.404       .  A
C193        C198   1.398       .  A
C193        H200   1.083       .  S
C194        C195   1.410       .  A
C195        C196   1.399       .  A
C195        F202   1.357       .  S
C196        C197   1.404       .  A
C196        H201   1.083       .  S
C197        C198   1.409       .  A
C198        F199   1.357       .  S
C203        C204   1.407       .  A
C203        C208   1.399       .  A
C203        H210   1.083       .  S
C204        C205   1.408       .  A
C205        C206   1.398       .  A
C205        F212   1.357       .  S
C206        C207   1.405       .  A
C206        H211   1.083       .  S
C207        C208   1.407       .  A
C208        F209   1.358       .  S
C213        C214   1.404       .  A
C213        C218   1.397       .  A
C213        H220   1.083       .  S
C214        C215   1.411       .  A
C215        C216   1.401       .  A
C215        F222   1.358       .  S
C216        C217   1.406       .  A
C216        H221   1.083       .  S
C217        C218   1.408       .  A
C218        F219   1.357       .  S
C223        C224   1.406       .  A
C223        C228   1.400   1_545  A
C223        H230   1.083       .  S
C224        C225   1.409       .  A
C225        C226   1.395   1_545  A
C225        F232   1.357       .  S
C226        C227   1.403       .  A
C226        H231   1.083       .  S
C227        C228   1.407       .  A
C228        F229   1.357       .  S
C233        C238   1.401       .  A
C233        C606   1.406       .  A
C233        H240   1.083       .  S
C234        C235   1.407       .  A
C234        C605   1.406   1_455  A
C235        C236   1.395       .  A
C235        F242   1.357       .  S
C236        C237   1.403       .  A
C236        H241   1.083       .  S
C237        C610   1.407   1_455  A
C238        C609   1.407       .  A
C238        F239   1.358       .  S
C243        C244   1.404       .  A
C243        C248   1.397       .  A
C243        H250   1.083       .  S
C244        C617   1.409       .  A
C245        C246   1.399       .  A
C245        C616   1.409       .  A
C245        F252   1.358       .  S
C246        C619   1.404       .  A
C246        H251   1.083       .  S
C247        C248   1.405       .  A
C247        C618   1.404       .  A
C247        C480   1.487       .  S
C248        F249   1.357       .  S
C253        C258   1.398       .  A
C253        C626   1.406   1_455  A
C253        H260   1.083       .  S
C254        C255   1.407       .  A
C254        C625   1.406       .  A
C255        C256   1.398       .  A
C255        F262   1.357       .  S
C256        C257   1.403       .  A
C256        H261   1.083       .  S
C257        C630   1.405       .  A
C257        C482   1.488       .  S
C258        C629   1.405       .  A
C258        F259   1.358       .  S
C263        C264   1.405   1_455  A
C263        C268   1.395       .  A
C263        H270   1.083       .  S
C264        C637   1.408       .  A
C265        C266   1.402       .  A
C265        C636   1.408       .  A
C265        F272   1.357       .  S
C266        C639   1.405       .  A
C266        H271   1.083       .  S
C267        C268   1.403   1_655  A
C267        C638   1.405       .  A
C268        F269   1.357       .  S
C273        C274   1.405       .  A
C273        C278   1.396       .  A
C273        H280   1.083       .  S
C274        C647   1.408       .  A
C275        C276   1.402       .  A
C275        C646   1.408       .  A
C275        F282   1.357       .  S
C276        C277   1.406       .  A
C276        H281   1.083       .  S
C277        C650   1.408       .  A
C278        C649   1.408       .  A
C278        F279   1.358       .  S
C283        C284   1.406       .  A
C283        C288   1.398       .  A
C283        H290   1.083       .  S
C284        C285   1.408       .  A
C285        C286   1.399       .  A
C285        F292   1.357       .  S
C286        C287   1.406       .  A
C286        H291   1.083       .  S
C287        C288   1.407       .  A
C288        F289   1.357       .  S
C293        C294   1.405       .  A
C293        C298   1.401       .  A
C293        H300   1.083       .  S
C294        C295   1.408       .  A
C295        C296   1.398       .  A
C295        F302   1.357       .  S
C296        C297   1.405       .  A
C296        H301   1.083       .  S
C297        C298   1.410       .  A
C298        F299   1.357       .  S
C303        C304   1.405       .  A
C303        C308   1.400       .  A
C303        H310   1.083       .  S
C304        C305   1.409       .  A
C305        C306   1.398       .  A
C305        F312   1.357       .  S
C306        C307   1.404       .  A
C306        H311   1.083       .  S
C307        C308   1.409       .  A
C308        F309   1.357       .  S
C313        C314   1.406       .  A
C313        C318   1.399       .  A
C313        H320   1.083       .  S
C314        C315   1.409       .  A
C315        C316   1.401       .  A
C315        F322   1.357       .  S
C316        C317   1.407       .  A
C316        H321   1.083       .  S
C317        C318   1.408       .  A
C318        F319   1.357       .  S
C323        C324   1.404       .  A
C323        C328   1.394   1_545  A
C323        H330   1.083       .  S
C324        C325   1.409       .  A
C325        C326   1.400   1_545  A
C325        F332   1.357       .  S
C326        C327   1.405       .  A
C326        H331   1.083       .  S
C327        C328   1.408       .  A
C328        F329   1.358       .  S
C333        C334   1.406       .  A
C333        C338   1.398       .  A
C333        H340   1.083       .  S
C334        C335   1.408       .  A
C335        C336   1.399       .  A
C335        F342   1.357       .  S
C336        C337   1.404       .  A
C336        H341   1.083       .  S
C337        C338   1.406       .  A
C338        F339   1.358       .  S
C343        C344   1.405       .  A
C343        C348   1.393       .  A
C343        H350   1.083       .  S
C344        C345   1.409       .  A
C345        C346   1.401       .  A
C345        F352   1.357       .  S
C346        C347   1.404       .  A
C346        H351   1.083       .  S
C347        C348   1.402       .  A
C348        F349   1.358       .  S
C353        C354   1.405       .  A
C353        C358   1.396       .  A
C353        H360   1.083       .  S
C354        C355   1.407       .  A
C355        C356   1.399       .  A
C355        F362   1.357       .  S
C356        C357   1.403       .  A
C356        H361   1.083       .  S
C357        C358   1.404       .  A
C358        F359   1.358       .  S
C363        C364   1.406       .  A
C363        C368   1.398       .  A
C363        H370   1.083       .  S
C364        C365   1.407       .  A
C365        C366   1.396       .  A
C365        F372   1.357       .  S
C366        C367   1.403       .  A
C366        H371   1.083       .  S
C367        C368   1.405       .  A
C368        F369   1.358       .  S
N373        C378   1.353       .  A
N373        C377   1.353       .  A
N373        H405   1.040       .  S
N374        C381   1.350   1_554  A
N374        C382   1.351       .  A
N375        C380   1.352       .  A
N375        C379   1.352       .  A
N375        H406   1.040       .  S
N376        C383   1.349       .  A
N376        C384   1.350   1_556  A
C377        C385   1.387       .  A
C377        C393   1.414       .  A
C378        C394   1.413       .  A
C378        C386   1.386       .  A
C379        C387   1.387       .  A
C379        C396   1.414       .  A
C380        C395   1.413       .  A
C380        C388   1.387       .  A
C381        C393   1.410       .  A
C381        C389   1.385       .  A
C382        C396   1.413       .  A
C382        C390   1.387       .  A
C383        C391   1.385       .  A
C383        C394   1.408       .  A
C384        C392   1.386       .  A
C384        C395   1.409       .  A
C385        C386   1.375       .  A
C385        H397   1.082       .  S
C386        H398   1.082       .  S
C387        C388   1.377       .  A
C387        H399   1.082       .  S
C388        H400   1.082       .  S
C389        C390   1.374   1_556  A
C389        H401   1.082       .  S
C390        H402   1.082       .  S
C391        C392   1.373   1_556  A
C391        H403   1.082       .  S
C392        H404   1.082       .  S
C393        C729   1.485       .  S
C394        C739   1.485       .  S
C395        C719   1.484       .  S
C396        C709   1.489       .  S
O407        C410   1.266       .  A
O407       Cd412   2.474       .  S
C408        C686   1.486       .  S
C408        O417   1.266       .  A
C408        O413   1.267       .  A
O409        C415   1.267       .  A
O409       Cd412   2.482       .  S
C410        C679   1.483       .  S
C410        O418   1.264       .  A
C411        C706   1.481       .  S
C411        O416   1.264       .  A
C411        O414   1.265       .  A
Cd412       O419   2.442       .  S
Cd412       O418   2.473       .  S
Cd412       O417   2.463       .  S
Cd412       O413   2.480       .  S
Cd412       O416   2.462       .  S
Cd412       O414   2.482       .  S
C415        C696   1.481       .  S
C415        O419   1.265       .  A
O420        C423   1.266       .  A
O420       Cd425   2.464       .  S
C421        C666   1.483       .  S
C421        O430   1.266       .  A
C421        O426   1.268       .  A
O422        C428   1.263       .  A
O422       Cd425   2.434       .  S
C423        C659   1.481       .  S
C423        O431   1.264       .  A
C424        C699   1.479       .  S
C424        O429   1.267       .  A
C424        O427   1.263       .  A
Cd425       O432   2.494       .  S
Cd425       O431   2.459       .  S
Cd425       O430   2.449       .  S
Cd425       O426   2.473       .  S
Cd425       O429   2.478       .  S
Cd425       O427   2.428       .  S
C428        C716   1.479       .  S
C428        O432   1.266       .  A
O433        C436   1.268       .  A
O433       Cd438   2.474       .  S
C434        C689   1.487       .  S
C434        O443   1.264       .  A
C434        O439   1.265       .  A
O435        C441   1.266       .  A
O435       Cd438   2.491       .  S
C436        C676   1.483       .  S
C436        O444   1.266       .  A
C437        C649   1.483       .  S
C437        O442   1.267       .  A
C437        O440   1.264       .  A
Cd438       O445   2.450       .  S
Cd438       O444   2.454       .  S
Cd438       O442   2.488       .  S
Cd438       O440   2.443       .  S
C441        C636   1.479       .  S
C441        O445   1.264       .  A
O446        C449   1.266       .  A
O446       Cd451   2.479       .  S
C447        C656   1.483       .  S
C447        O456   1.266       .  A
C447        O452   1.268       .  A
O448        C454   1.266       .  A
O448       Cd451   2.485       .  S
C449        C669   1.485       .  S
C449        O457   1.264       .  A
C450        C646   1.483       .  S
C450        O455   1.266       .  A
C450        O453   1.264       .  A
Cd451       O458   2.463   1_655  S
Cd451       O457   2.479       .  S
Cd451       O455   2.491       .  S
Cd451       O453   2.451       .  S
C454        C626   1.480       .  S
C454        O458   1.264   1_655  A
N459        C464   1.352   1_565  A
N459        C463   1.352       .  A
N459        H491   1.047       .  S
N460        C467   1.351       .  A
N460        C468   1.351       .  A
N461        C466   1.353       .  A
N461        C465   1.352   1_545  A
N461        H492   1.046       .  S
N462        C469   1.351       .  A
N462        C470   1.351       .  A
C463        C471   1.388       .  A
C463        C479   1.416       .  A
C464        C480   1.413       .  A
C464        C472   1.386       .  A
C465        C473   1.387       .  A
C465        C482   1.416       .  A
C466        C481   1.416       .  A
C466        C474   1.387       .  A
C467        C479   1.412       .  A
C467        C475   1.386       .  A
C468        C482   1.413       .  A
C468        C476   1.386       .  A
C469        C477   1.386       .  A
C469        C480   1.411       .  A
C470        C478   1.385       .  A
C470        C481   1.410       .  A
C471        C472   1.376   1_565  A
C471        H483   1.082       .  S
C472        H484   1.082       .  S
C473        C474   1.375   1_565  A
C473        H485   1.082       .  S
C474        H486   1.082       .  S
C475        C476   1.374       .  A
C475        H487   1.082       .  S
C476        H488   1.082       .  S
C477        C478   1.373       .  A
C477        H489   1.082       .  S
C478        H490   1.082       .  S
C479        C609   1.490       .  S
C481        C639   1.489       .  S
O493        C496   1.265       .  A
O493       Cd498   2.469       .  S
C494        C589   1.484       .  S
C494        O503   1.267       .  A
C494        O499   1.268       .  A
O495        C501   1.266       .  A
O495       Cd498   2.488       .  S
C496        C579   1.481       .  S
C496        O504   1.264       .  A
C497        C596   1.482       .  S
C497        O502   1.267       .  A
C497        O500   1.264       .  A
Cd498       O505   2.453       .  S
Cd498       O504   2.465       .  S
Cd498       O503   2.443       .  S
Cd498       O499   2.475       .  S
Cd498       O502   2.489       .  S
Cd498       O500   2.447       .  S
C501        C726   1.476       .  S
C501        O505   1.263       .  A
O506        C509   1.269       .  A
O506       Cd511   2.474       .  S
C507        C556   1.484       .  S
C507        O516   1.264       .  A
C507        O512   1.266       .  A
O508        C514   1.265       .  A
O508       Cd511   2.468       .  S
C509        C566   1.484       .  S
C509        O517   1.266       .  A
C510        C599   1.478       .  S
C510        O515   1.267       .  A
C510        O513   1.265       .  A
Cd511       O518   2.464       .  S
Cd511       O517   2.454       .  S
Cd511       O516   2.469       .  S
Cd511       O512   2.477       .  S
Cd511       O515   2.470       .  S
Cd511       O513   2.435       .  S
C514        C736   1.477       .  S
C514        O518   1.264       .  A
O519        C522   1.267       .  A
O519       Cd524   2.479   1_655  S
C520        C576   1.484       .  S
C520        O529   1.266       .  A
C520        O525   1.268       .  A
O521        C527   1.266   1_655  A
O521       Cd524   2.471   1_655  S
C522        C586   1.485       .  S
C522        O530   1.263       .  A
C523        C549   1.477       .  S
C523        O528   1.268       .  A
C523        O526   1.263       .  A
Cd524       O531   2.455       .  S
Cd524       O530   2.473   1_455  S
Cd524       O528   2.478       .  S
Cd524       O526   2.423       .  S
C527        C616   1.476       .  S
C527        O531   1.264       .  A
O532        C535   1.266       .  A
O532       Cd537   2.474       .  S
C533        C569   1.483       .  S
C533        O542   1.264       .  A
C533        O538   1.267       .  A
O534        C540   1.264       .  A
O534       Cd537   2.446       .  S
C535        C559   1.485       .  S
C535        O543   1.266       .  A
C536        C546   1.480       .  S
C536        O541   1.266       .  A
C536        O539   1.264       .  A
Cd537       O544   2.487       .  S
Cd537       O543   2.469       .  S
Cd537       O541   2.478       .  S
Cd537       O539   2.451       .  S
C540        C606   1.478       .  S
C540        O544   1.266       .  A
C545        C546   1.405       .  A
C545        C550   1.395       .  A
C545        H552   1.083       .  S
C547        C548   1.399       .  A
C547        F554   1.357       .  S
C548        C549   1.404       .  A
C548        H553   1.083       .  S
C550        F551   1.358       .  S
C555        C556   1.407       .  A
C555        C560   1.400       .  A
C555        H562   1.083       .  S
C556        C557   1.407       .  A
C557        C558   1.399       .  A
C557        F564   1.357       .  S
C558        C559   1.406       .  A
C558        H563   1.083       .  S
C559        C560   1.409       .  A
C560        F561   1.358       .  S
C565        C566   1.404       .  A
C565        C570   1.398       .  A
C565        H572   1.083       .  S
C566        C567   1.410       .  A
C567        C568   1.399       .  A
C567        F574   1.357       .  S
C568        C569   1.404       .  A
C568        H573   1.083       .  S
C569        C570   1.409       .  A
C570        F571   1.357       .  S
C575        C576   1.407       .  A
C575        C580   1.399       .  A
C575        H582   1.083       .  S
C576        C577   1.408       .  A
C577        C578   1.398       .  A
C577        F584   1.357       .  S
C578        C579   1.405       .  A
C578        H583   1.083       .  S
C579        C580   1.407       .  A
C580        F581   1.358       .  S
C585        C586   1.404       .  A
C585        C590   1.397       .  A
C585        H592   1.083       .  S
C586        C587   1.411       .  A
C587        C588   1.401       .  A
C587        F594   1.358       .  S
C588        C589   1.406       .  A
C588        H593   1.083       .  S
C589        C590   1.408       .  A
C590        F591   1.357       .  S
C595        C596   1.406       .  A
C595        C600   1.400   1_545  A
C595        H602   1.083       .  S
C596        C597   1.409       .  A
C597        C598   1.395   1_545  A
C597        F604   1.357       .  S
C598        C599   1.403       .  A
C598        H603   1.083       .  S
C599        C600   1.407       .  A
C600        F601   1.357       .  S
C605        C610   1.401       .  A
C605        H612   1.083       .  S
C606        C607   1.407       .  A
C607        C608   1.395       .  A
C607        F614   1.357       .  S
C608        C609   1.403       .  A
C608        H613   1.083       .  S
C610        F611   1.358       .  S
C615        C616   1.404   1_655  A
C615        C620   1.397       .  A
C615        H622   1.083       .  S
C617        C618   1.399       .  A
C617        F624   1.358       .  S
C618        H623   1.083       .  S
C619        C620   1.405   1_455  A
C620        F621   1.357       .  S
C625        C630   1.398       .  A
C625        H632   1.083       .  S
C626        C627   1.407       .  A
C627        C628   1.398       .  A
C627        F634   1.357       .  S
C628        C629   1.403   1_655  A
C628        H633   1.083       .  S
C630        F631   1.358       .  S
C635        C636   1.405       .  A
C635        C640   1.395       .  A
C635        H642   1.083       .  S
C637        C638   1.402       .  A
C637        F644   1.357       .  S
C638        H643   1.083       .  S
C639        C640   1.403       .  A
C640        F641   1.357       .  S
C645        C646   1.405       .  A
C645        C650   1.396       .  A
C645        H652   1.083       .  S
C647        C648   1.402       .  A
C647        F654   1.357       .  S
C648        C649   1.406       .  A
C648        H653   1.083       .  S
C650        F651   1.358       .  S
C655        C656   1.406       .  A
C655        C660   1.398       .  A
C655        H662   1.083       .  S
C656        C657   1.408       .  A
C657        C658   1.399       .  A
C657        F664   1.357       .  S
C658        C659   1.406       .  A
C658        H663   1.083       .  S
C659        C660   1.407       .  A
C660        F661   1.357       .  S
C665        C666   1.405       .  A
C665        C670   1.401       .  A
C665        H672   1.083       .  S
C666        C667   1.408       .  A
C667        C668   1.398       .  A
C667        F674   1.357       .  S
C668        C669   1.405       .  A
C668        H673   1.083       .  S
C669        C670   1.410       .  A
C670        F671   1.357       .  S
C675        C676   1.405       .  A
C675        C680   1.400       .  A
C675        H682   1.083       .  S
C676        C677   1.409       .  A
C677        C678   1.398       .  A
C677        F684   1.357       .  S
C678        C679   1.404       .  A
C678        H683   1.083       .  S
C679        C680   1.409       .  A
C680        F681   1.357       .  S
C685        C686   1.406       .  A
C685        C690   1.399       .  A
C685        H692   1.083       .  S
C686        C687   1.409       .  A
C687        C688   1.401       .  A
C687        F694   1.357       .  S
C688        C689   1.407       .  A
C688        H693   1.083       .  S
C689        C690   1.408       .  A
C690        F691   1.357       .  S
C695        C696   1.404       .  A
C695        C700   1.394   1_545  A
C695        H702   1.083       .  S
C696        C697   1.409       .  A
C697        C698   1.400   1_545  A
C697        F704   1.357       .  S
C698        C699   1.405       .  A
C698        H703   1.083       .  S
C699        C700   1.408       .  A
C700        F701   1.358       .  S
C705        C706   1.406       .  A
C705        C710   1.398       .  A
C705        H712   1.083       .  S
C706        C707   1.408       .  A
C707        C708   1.399       .  A
C707        F714   1.357       .  S
C708        C709   1.404       .  A
C708        H713   1.083       .  S
C709        C710   1.406       .  A
C710        F711   1.358       .  S
C715        C716   1.405       .  A
C715        C720   1.393       .  A
C715        H722   1.083       .  S
C716        C717   1.409       .  A
C717        C718   1.401       .  A
C717        F724   1.357       .  S
C718        C719   1.404       .  A
C718        H723   1.083       .  S
C719        C720   1.402       .  A
C720        F721   1.358       .  S
C725        C726   1.405       .  A
C725        C730   1.396       .  A
C725        H732   1.083       .  S
C726        C727   1.407       .  A
C727        C728   1.399       .  A
C727        F734   1.357       .  S
C728        C729   1.403       .  A
C728        H733   1.083       .  S
C729        C730   1.404       .  A
C730        F731   1.358       .  S
C735        C736   1.406       .  A
C735        C740   1.398       .  A
C735        H742   1.083       .  S
C736        C737   1.407       .  A
C737        C738   1.396       .  A
C737        F744   1.357       .  S
C738        C739   1.403       .  A
C738        H743   1.083       .  S
C739        C740   1.405       .  A
C740        F741   1.358       .  S
