geometry optimzed in LAMMPS
_audit_creation_date              2020-12-01 
_audit_creation_method            'lammps2cif' 
_symmetry_space_group_name_H-M    'P1' 
_symmetry_Int_Tables_number       1 
_symmetry_cell_setting            triclinic 
loop_ 
_symmetry_equiv_pos_as_xyz 
  x,y,z 
_cell_length_a                    43.16718297 
_cell_length_b                    43.40498856347671 
_cell_length_c                    25.250946478284433 
_cell_angle_alpha                 89.60481815726058 
_cell_angle_beta                  89.70695034946424 
_cell_angle_gamma                 90.25265699068336 
loop_ 
_atom_site_label 
_atom_site_type_symbol 
_atom_site_fract_x 
_atom_site_fract_y 
_atom_site_fract_z 
_atom_site_charge 
O1          O  0.18722929  0.19532295  0.41715859    -0.73800
O2          O  0.21525042  0.22402526  0.35784442    -0.52700
C3          C  0.19433111  0.20400448  0.36969980     0.79900
O4          O  0.19413795  0.30794423  0.61142046    -0.58400
O5          O  0.22087326  0.27681896  0.66811645    -0.51400
C6          C  0.20156690  0.29860208  0.65823122     0.72000
O7          O  0.18858958  0.31427812  0.43097326    -0.72900
O8          O  0.21385172  0.28851039  0.36534722    -0.53500
C9          C  0.19394646  0.30806855  0.38178252     0.78000
O10         O  0.19251213  0.18369719  0.59515183    -0.58100
O11         O  0.21875876  0.20901423  0.65996087    -0.51200
C12         C  0.19901217  0.18885502  0.64400571     0.74500
Zr13       Zr  0.20484002  0.20453726  0.50735643     2.54700
O14         O  0.14861681  0.20609553  0.51449971    -0.78700
O15         O  0.20383295  0.14884666  0.49590993    -0.92100
Zr16       Zr  0.20569901  0.29601490  0.51893188     2.64700
O17         O  0.14931756  0.29445418  0.52322384    -0.97000
O18         O  0.20629008  0.35193534  0.52577428    -0.79100
O19         O  0.20339458  0.25277250  0.46252069    -0.82500
O20         O  0.20533762  0.24770712  0.56433450    -2.17200
O21         O  0.31184668  0.18245498  0.58607325    -0.65800
O22         O  0.28733701  0.20749114  0.65358314    -0.50400
C23         C  0.30640000  0.18732626  0.63556270     0.72900
O24         O  0.31937606  0.30482802  0.42645182    -0.58700
O25         O  0.28456753  0.28989238  0.36387141    -0.50700
C26         C  0.31000859  0.30277797  0.37824623     0.74700
O27         O  0.31172382  0.30736771  0.60607462    -0.70100
O28         O  0.28663074  0.27608965  0.66537184    -0.48800
C29         C  0.30557484  0.29802848  0.65359928     0.76100
O30         O  0.30920577  0.19483744  0.40499080    -0.65500
O31         O  0.28053565  0.22620167  0.35158675    -0.52700
C32         C  0.30066237  0.20517432  0.35897713     0.74500
Zr33       Zr  0.29691585  0.20384885  0.49998360     2.77500
O34         O  0.35326436  0.20650437  0.49941267    -0.96200
O35         O  0.29718890  0.14814144  0.48968868    -0.77000
Zr36       Zr  0.29778160  0.29504795  0.51478151     2.70100
O37         O  0.35366741  0.29997066  0.52467114    -0.78300
O38         O  0.29304788  0.35085353  0.50966005    -0.97400
Zr39       Zr  0.24938627  0.25545040  0.41071124     2.21500
Zr40       Zr  0.25280445  0.24434221  0.61202531     2.11100
O41         O  0.29874578  0.24656539  0.55874071    -2.46100
O42         O  0.29716909  0.25231145  0.45683520    -0.78100
O43         O  0.25188912  0.20076465  0.55487087    -0.70300
O44         O  0.25112385  0.29965499  0.46585769    -2.31200
O45         O  0.24975265  0.20620628  0.45296043    -2.27400
O46         O  0.25247410  0.29310338  0.56802585    -0.72000
H47         H  0.18780480  0.24664007  0.58820612     0.80000
H48         H  0.25127607  0.31839585  0.44497662     0.81000
H49         H  0.31699538  0.24528775  0.58054854     0.83300
H50         H  0.24902799  0.18977644  0.42737101     0.80900
H51         H  0.22278946  0.35879468  0.50094587     0.43900
H52         H  0.28631751  0.35702626  0.54558345     0.42900
H53         H  0.36028850  0.27993458  0.53968425     0.42600
H54         H  0.35991437  0.18579165  0.48788823     0.40500
H55         H  0.27656453  0.14137611  0.50269657     0.43600
H56         H  0.21527163  0.14054064  0.52670457     0.38400
H57         H  0.14248082  0.18466616  0.52343980     0.44500
H58         H  0.14426988  0.27400662  0.53867138     0.40900
H59         H  0.35847410  0.22024592  0.46916737     0.45900
H60         H  0.21764482  0.14499122  0.46526640     0.44600
H61         H  0.14362222  0.30930369  0.55118474     0.44700
H62         H  0.31465785  0.35842573  0.50662805     0.45100
C63         C  0.35816407  0.35319137  0.73405064     0.88000
C64         C  0.37667382  0.33269182  0.77237448    -0.52200
C65         C  0.39150997  0.34901065  0.81092946     0.10900
C66         C  0.38646027  0.38388185  0.80741634     0.21900
C67         C  0.33618257  0.37194056  0.76952496    -0.53000
C68         C  0.35107969  0.38841941  0.80775764     0.11000
C69         C  0.38186445  0.37688745  0.71275463    -0.52500
C70         C  0.39669943  0.39295568  0.75145876     0.11600
H71         H  0.37810657  0.30786804  0.76849877     0.16100
H72         H  0.39920249  0.39644312  0.83860369     0.01800
H73         H  0.31127045  0.37275203  0.76392852     0.16400
H74         H  0.38667216  0.38010887  0.67086927     0.16200
C75         C  0.34426104  0.15712396  0.76665883     0.88000
C76         C  0.32476408  0.13821778  0.80669209    -0.52200
C77         C  0.34197227  0.12431638  0.84535587     0.10900
C78         C  0.37679146  0.13054703  0.84045866     0.21900
C79         C  0.36316346  0.17975617  0.80083529    -0.53000
C80         C  0.38007108  0.16564174  0.83963334     0.11000
C81         C  0.36857802  0.13416862  0.74551445    -0.52500
C82         C  0.38546469  0.12026446  0.78444608     0.11600
H83         H  0.29971119  0.13630412  0.80469896     0.16100
H84         H  0.39069525  0.11909007  0.87181201     0.01800
H85         H  0.36261966  0.20458443  0.79539184     0.16400
H86         H  0.37313772  0.12971444  0.70413331     0.16200
C87         C  0.15055403  0.35289681  0.74375654     0.88000
C88         C  0.17314211  0.37063096  0.77965972    -0.52200
C89         C  0.15872734  0.38620833  0.81952889     0.10900
C90         C  0.12337395  0.38179149  0.82076768     0.21900
C91         C  0.13212345  0.33154590  0.78123694    -0.53000
C92         C  0.11785386  0.34673071  0.82179895     0.11000
C93         C  0.12692590  0.37725584  0.72529414    -0.52500
C94         C  0.11268979  0.39249083  0.76589251     0.11600
H95         H  0.19799269  0.37168920  0.77293245     0.16100
H96         H  0.11170885  0.39394424  0.85388528     0.01800
H97         H  0.13069688  0.30678640  0.77597835     0.16400
H98         H  0.12241583  0.38202744  0.68384963     0.16200
C99         C  0.15557412  0.16308626  0.77333958     0.88000
C100        C  0.13862775  0.18759600  0.80649523    -0.52200
C101        C  0.11772345  0.17561712  0.84177062     0.10900
C102        C  0.11620005  0.14028933  0.84188615     0.21900
C103        C  0.17039497  0.14135651  0.81450109    -0.53000
C104        C  0.14956190  0.12933019  0.85027044     0.11000
C105        C  0.12914156  0.14374190  0.74856168    -0.52500
C106        C  0.10891134  0.13158064  0.78487267     0.11600
H107        H  0.14228945  0.21222726  0.80153154     0.16100
H108        H  0.09957055  0.13034173  0.87115762     0.01800
H109        H  0.19490513  0.13587473  0.81484640     0.16400
H110        H  0.12589647  0.14010938  0.70661721     0.16200
N111        N  0.50586135  0.46403844  0.69097051    -0.35100
N112        N  0.05532077  0.00921740  0.71932658    -0.55700
N113        N  0.49179970  0.04759375  0.72179237    -0.35100
N114        N  0.44413092  0.99937027  0.72015904    -0.55700
C115        C  0.02466670  0.44491657  0.69840917     0.28500
C116        C  0.48043768  0.44652204  0.68216829     0.28500
C117        C  0.03025174  0.07350777  0.71581905     0.28500
C118        C  0.46606222  0.06512558  0.71784200     0.28500
C119        C  0.06362441  0.48338555  0.72920962     0.37100
C120        C  0.07196239  0.03463921  0.73136200     0.37100
C121        C  0.43993432  0.48622866  0.69850667     0.37100
C122        C  0.42589453  0.02387339  0.73049860     0.37100
C123        C  0.01664948  0.41727246  0.67474089    -0.20400
C124        C  0.48946260  0.41715131  0.66744549    -0.20400
C125        C  0.02063734  0.10291156  0.70180873    -0.20400
C126        C  0.47457139  0.09528795  0.70603024    -0.24100
C127        C  0.09280712  0.49194942  0.74662472    -0.21400
C128        C  0.10160143  0.02633766  0.74686268    -0.21400
C129        C  0.41074062  0.49518371  0.71550885    -0.21400
C130        C  0.39624956  0.01399347  0.74370765    -0.21400
C131        C  0.05511086  0.45327596  0.71330181    -0.16800
C132        C  0.44944226  0.45547149  0.69154958    -0.16800
C133        C  0.43518995  0.05512016  0.72708033    -0.16800
C134        C  0.06133993  0.06532947  0.72672127    -0.16800
H135        H  0.03206203  0.39928117  0.66145196     0.16100
H136        H  0.47460473  0.39771416  0.65864980     0.16100
H137        H  0.03495653  0.12317091  0.69574092     0.16100
H138        H  0.45946230  0.11488166  0.70062829     0.16100
H139        H  0.11305085  0.47756331  0.75103482     0.14400
H140        H  0.12034171  0.04140325  0.75869072     0.14400
H141        H  0.39144261  0.48047583  0.72667849     0.14400
H142        H  0.37640065  0.02802694  0.75356742     0.14400
H143        H  0.50609422  0.48552374  0.70869714     0.27700
H144        H  0.49269425  0.02517233  0.73603293     0.27700
C145        C  0.34286359  0.33998065  0.24974506     0.88000
C146        C  0.32773628  0.36078257  0.20754356    -0.52200
C147        C  0.34829334  0.37193655  0.17056923     0.10900
C148        C  0.38156229  0.36058494  0.17854230     0.21900
C149        C  0.35906107  0.31436691  0.21831817    -0.53000
C150        C  0.37962314  0.32520653  0.18147489     0.11000
C151        C  0.36923727  0.35996847  0.27230446    -0.52500
C152        C  0.38966166  0.37050471  0.23473234     0.11600
H153        H  0.30338022  0.36689797  0.20807027     0.16100
H154        H  0.39792590  0.36960990  0.14799655     0.01800
H155        H  0.35515188  0.28994559  0.22544910     0.16400
H156        H  0.37074528  0.36595844  0.31383919     0.16200
C157        C  0.15092755  0.32965573  0.25234718     0.88000
C158        C  0.12395949  0.34896629  0.27409540    -0.52200
C159        C  0.10930191  0.36607535  0.23641140     0.10900
C160        C  0.12231275  0.36177653  0.18053525     0.21900
C161        C  0.13609839  0.30982364  0.20845888    -0.53000
C162        C  0.12100122  0.32692107  0.17078552     0.11000
C163        C  0.17203974  0.35274123  0.22253546    -0.52500
C164        C  0.15684971  0.36980201  0.18536685     0.11600
H165        H  0.11714830  0.34909662  0.31554089     0.16100
H166        H  0.10997833  0.37553049  0.14998885     0.01800
H167        H  0.13721150  0.28484690  0.20762290     0.16400
H168        H  0.19647305  0.35588905  0.23114987     0.16200
N169        N  0.45159000  0.29355808  0.99599697    -0.35100
N170        N  0.49800671  0.30035259  0.91387688    -0.55700
N171        N  0.05061066  0.28976099  0.99144807    -0.35100
N172        N  0.50180138  0.29488606  0.07257453    -0.55700
C173        C  0.43379227  0.30116593  0.95394024     0.28500
C174        C  0.43597326  0.30223091  0.04008364     0.28500
C175        C  0.06794561  0.28721071  0.94695047     0.28500
C176        C  0.06886565  0.28207208  0.03292164     0.28500
C177        C  0.47317366  0.29476333  0.88298396     0.37100
C178        C  0.02732125  0.29676344  0.87870056     0.37100
C179        C  0.47732091  0.29131066  0.10557985     0.37100
C180        C  0.02996136  0.28698078  0.10606420     0.37100
C181        C  0.40594286  0.31322372  0.97159022    -0.20400
C182        C  0.40756093  0.31449699  0.02568695    -0.20400
C183        C  0.09750767  0.27760530  0.96013181    -0.20400
C184        C  0.09805238  0.27422995  0.01437766    -0.20400
C185        C  0.48226179  0.29281325  0.83034962    -0.21400
C186        C  0.01786689  0.30359187  0.82760243    -0.21400
C187        C  0.48732618  0.28469796  0.15641937    -0.21400
C188        C  0.02185585  0.29206436  0.15845932    -0.21400
C189        C  0.44224471  0.29819141  0.90000616    -0.16800
C190        C  0.44678768  0.29970495  0.09280094    -0.16800
C191        C  0.06085953  0.28461008  0.08724875    -0.16800
C192        C  0.05858510  0.29550829  0.89518051    -0.16800
H193        H  0.38666932  0.32123459  0.94809566     0.16100
H194        H  0.38975781  0.32392511  0.05098320     0.16100
H195        H  0.11677026  0.27376631  0.93340542     0.16100
H196        H  0.11787296  0.26739174  0.03767834     0.16100
H197        H  0.46755023  0.28989325  0.79615279     0.14400
H198        H  0.03229288  0.30857515  0.79340434     0.14400
H199        H  0.47320655  0.28194872  0.19170182     0.14400
H200        H  0.03704541  0.29362468  0.19229624     0.14400
H201        H  0.47246724  0.28168878  0.99457513     0.27700
H202        H  0.02938827  0.30071146  0.99375592     0.27700
C203        C  0.13696566  0.15507877  0.28831492     0.88000
C204        C  0.15639493  0.13498729  0.25101835    -0.52200
C205        C  0.13959709  0.12139053  0.21171979     0.10900
C206        C  0.10489906  0.13025850  0.21266781     0.21900
C207        C  0.12115990  0.17873078  0.25229581    -0.53000
C208        C  0.10418488  0.16585097  0.21294540     0.11000
C209        C  0.11080536  0.13371965  0.30797188    -0.52500
C210        C  0.09415344  0.12052475  0.26822273     0.11600
H211        H  0.18093766  0.13076044  0.25674531     0.16100
H212        H  0.09090783  0.12009147  0.18045149     0.01800
H213        H  0.12277180  0.20347394  0.25800508     0.16400
H214        H  0.10606890  0.12939327  0.34963377     0.16200
N215        N  0.44015954  0.99708286  0.30246269    -0.35100
N216        N  0.50624555  0.43245239  0.30468010    -0.55700
N217        N  0.03503667  0.99908401  0.33340818    -0.35100
N218        N  0.48848953  0.04419333  0.29712530    -0.55700
C219        C  0.44068570  0.45376289  0.29288882     0.28500
C220        C  0.42418583  0.02111614  0.28246481     0.28500
C221        C  0.06678978  0.45851029  0.29845323     0.28500
C222        C  0.05306797  0.02391656  0.32247888     0.28500
C223        C  0.48121474  0.41377334  0.30914510     0.37100
C224        C  0.02641574  0.41684567  0.30497990     0.37100
C225        C  0.46315842  0.06228493  0.29801084     0.37100
C226        C  0.01251436  0.06447297  0.32862219     0.37100
C227        C  0.41139113  0.46280510  0.27640408    -0.20400
C228        C  0.39655801  0.01084492  0.26104031    -0.20400
C229        C  0.09653436  0.46857952  0.28596103    -0.20400
C230        C  0.08276532  0.01429814  0.30967579    -0.20400
C231        C  0.49052947  0.38375351  0.31900822    -0.21400
C232        C  0.01756877  0.38624899  0.31108630    -0.21400
C233        C  0.47135254  0.09250214  0.30876378    -0.21400
C234        C  0.00301087  0.09457930  0.33641968    -0.21400
C235        C  0.45035363  0.42278179  0.29917924    -0.16800
C236        C  0.43300317  0.05224308  0.28585394    -0.16800
C237        C  0.04367354  0.05504433  0.32447774    -0.16800
C238        C  0.05743434  0.42714793  0.29980119    -0.16800
H239        H  0.39211925  0.44828473  0.26516484     0.16100
H240        H  0.37858305  0.02455288  0.24277962     0.16100
H241        H  0.11636466  0.45461215  0.27568925     0.16100
H242        H  0.10256227  0.02856481  0.29944676     0.16100
H243        H  0.47599140  0.36349565  0.32323875     0.14400
H244        H  0.03243432  0.36631761  0.31436717     0.14400
H245        H  0.45623336  0.11224912  0.31180395     0.14400
H246        H  0.01742169  0.11466754  0.34280957     0.14400
H247        H  0.45961199  0.99867912  0.32627117     0.27700
H248        H  0.01284150  0.99951535  0.34929677     0.27700
N249        N  0.17574853  0.45654697  0.01266180    -0.35100
N250        N  0.17866933  0.00251697  0.93732466    -0.55700
N251        N  0.16667407  0.04696917  0.02098683    -0.35100
N252        N  0.15755255  0.99810167  0.09975681    -0.55700
C253        C  0.16919862  0.44162711  0.96700685     0.28500
C254        C  0.16644022  0.43796925  0.05315513     0.28500
C255        C  0.17883211  0.06543830  0.98269141     0.28500
C256        C  0.16588800  0.06342131  0.06634041     0.28500
C257        C  0.18168163  0.48409735  0.90258427     0.37100
C258        C  0.17782111  0.02859574  0.90763828     0.37100
C259        C  0.16856668  0.47596659  0.12677416     0.37100
C260        C  0.14645198  0.02230348  0.12745811     0.37100
C261        C  0.15670106  0.41285311  0.97894911    -0.20400
C262        C  0.15517062  0.41048237  0.03303157    -0.20400
C263        C  0.18643056  0.09373797  0.00414423    -0.20400
C264        C  0.17790038  0.09265212  0.05661869    -0.20400
C265        C  0.18892452  0.49469986  0.85211907    -0.21400
C266        C  0.17375961  0.02137451  0.85472259    -0.21400
C267        C  0.16839997  0.48367559  0.17998285    -0.21400
C268        C  0.13118400  0.01182126  0.17257762    -0.21400
C269        C  0.17325246  0.45331485  0.91475719    -0.16800
C270        C  0.16624419  0.44550835  0.10770169    -0.16800
C271        C  0.15116003  0.05374903  0.11396884    -0.16800
C272        C  0.17947226  0.05888256  0.92780468    -0.16800
H273        H  0.14856846  0.39548943  0.95176392     0.16100
H274        H  0.14547434  0.39111854  0.05476350     0.16100
H275        H  0.19599275  0.11359388  0.98357178     0.16100
H276        H  0.17977784  0.11172121  0.08364719     0.16100
H277        H  0.19089690  0.48125494  0.81632227     0.14400
H278        H  0.17193916  0.03708206  0.82143254     0.14400
H279        H  0.16883650  0.46816531  0.21372584     0.14400
H280        H  0.12015645  0.02549574  0.20290342     0.14400
H281        H  0.18702408  0.47761730  0.01623652     0.27700
H282        H  0.15482108  0.02647401  0.01470542     0.27700
N283        N  0.44792060  0.21717556  0.00593103    -0.35100
N284        N  0.49502694  0.21381242  0.08876473    -0.55700
N285        N  0.03879529  0.20466651  0.02150847    -0.35100
N286        N  0.49509866  0.22336807  0.92193271    -0.55700
C287        C  0.42986115  0.22039797  0.04954193     0.28500
C288        C  0.42999874  0.22245747  0.96310567     0.28500
C289        C  0.05170512  0.19138582  0.06483257     0.28500
C290        C  0.05481423  0.19446175  0.97878822     0.28500
C291        C  0.46938895  0.20684807  0.11765384     0.37100
C292        C  0.01216185  0.20623785  0.13223088     0.37100
C293        C  0.47002206  0.21671787  0.89205279     0.37100
C294        C  0.01862505  0.21123852  0.90763476     0.37100
C295        C  0.40016120  0.22846464  0.03414484    -0.20400
C296        C  0.40020086  0.22954378  0.97959419    -0.20400
C297        C  0.07687728  0.17373866  0.04952448    -0.20400
C298        C  0.07887105  0.17571131  0.99549260    -0.20400
C299        C  0.47762896  0.19134976  0.16361722    -0.21400
C300        C  0.00251390  0.21071011  0.18403142    -0.21400
C301        C  0.47930710  0.20805987  0.84167027    -0.21400
C302        C  0.01116726  0.21632515  0.85496720    -0.21400
C303        C  0.43842552  0.21240861  0.10203447    -0.16800
C304        C  0.43885788  0.21736338  0.90979001    -0.16800
C305        C  0.04752623  0.19998116  0.92490121    -0.16800
C306        C  0.04101814  0.19367950  0.11778426    -0.16800
H307        H  0.38022199  0.23199468  0.05950402     0.16100
H308        H  0.38036976  0.23419792  0.95477844     0.16100
H309        H  0.09174076  0.15985746  0.07438045     0.16100
H310        H  0.09544731  0.16346661  0.97131308     0.16100
H311        H  0.46240026  0.18219805  0.19412647     0.14400
H312        H  0.01618072  0.20827133  0.21962109     0.14400
H313        H  0.46478303  0.20106047  0.80904826     0.14400
H314        H  0.02654584  0.21546419  0.82102175     0.14400
H315        H  0.46962773  0.20719792  0.00488466     0.27700
H316        H  0.02086748  0.22060932  0.02122447     0.27700
C317        C  0.34811586  0.15646483  0.25949657     0.88000
C318        C  0.36459915  0.17922879  0.22117317    -0.52200
C319        C  0.37736768  0.16518060  0.17777662     0.10900
C320        C  0.37268277  0.13013750  0.17722207     0.21900
C321        C  0.32442589  0.13879708  0.22511720    -0.53000
C322        C  0.33758327  0.12510731  0.18170090     0.11000
C323        C  0.37273114  0.13269847  0.27305117    -0.52500
C324        C  0.38538878  0.11861519  0.23027416     0.11600
H325        H  0.36603378  0.20386459  0.22792319     0.16100
H326        H  0.38343555  0.11862199  0.14253982     0.01800
H327        H  0.29990200  0.13716514  0.23449784     0.16400
H328        H  0.37977191  0.12763052  0.31340722     0.16200
N329        N  0.29307849  0.05225267  0.01915794    -0.35100
N330        N  0.32628743  0.50848572  0.92647866    -0.55700
N331        N  0.32423880  0.45787456  0.00291333    -0.35100
N332        N  0.31360437  0.50052259  0.09005518    -0.55700
C333        C  0.28856643  0.06953622  0.97503008     0.28500
C334        C  0.28465903  0.06949056  0.06121281     0.28500
C335        C  0.32419057  0.44205958  0.95688680     0.28500
C336        C  0.31636613  0.43789220  0.04215250     0.28500
C337        C  0.30684350  0.03155254  0.90877012     0.37100
C338        C  0.33675661  0.48553462  0.89526460     0.37100
C339        C  0.29174288  0.03061296  0.13277829     0.37100
C340        C  0.31880994  0.47428512  0.11798751     0.37100
C341        C  0.27654156  0.09789547  0.98917456    -0.20400
C342        C  0.27420646  0.09791156  0.04364968    -0.20400
C343        C  0.31602310  0.41162782  0.96711451    -0.20400
C344        C  0.31054351  0.40916576  0.02061992    -0.20400
C345        C  0.32356247  0.02387834  0.86372113    -0.21400
C346        C  0.34817638  0.49761676  0.84802414    -0.21400
C347        C  0.29936052  0.02134964  0.18375738    -0.21400
C348        C  0.32572087  0.48131171  0.17008969    -0.21400
C349        C  0.29869868  0.06176216  0.92343060    -0.16800
C350        C  0.28998579  0.06157538  0.11492212    -0.16800
C351        C  0.31782272  0.44403968  0.09717644    -0.16800
C352        C  0.33493559  0.45371425  0.90753611    -0.16800
H353        H  0.27113550  0.11699427  0.96308245     0.16100
H354        H  0.26656754  0.11697191  0.06776756     0.16100
H355        H  0.31470874  0.39273554  0.93962089     0.16100
H356        H  0.30416072  0.38820275  0.04147881     0.16100
H357        H  0.33260383  0.03931356  0.83347586     0.14400
H358        H  0.35754333  0.48518067  0.81461381     0.14400
H359        H  0.30471946  0.03579695  0.21726213     0.14400
H360        H  0.33141067  0.46548232  0.20184614     0.14400
H361        H  0.30575840  0.03201342  0.02123017     0.27700
H362        H  0.33384677  0.47956578  0.00819750     0.27700
C363        C  0.29768628  0.08669112  0.15298369    -0.14900
C364        C  0.32153367  0.10579034  0.14200758    -0.30100
H365        H  0.28778378  0.08610333  0.19259166     0.14100
H366        H  0.33305115  0.10375600  0.10381344     0.14700
C367        C  0.39530132  0.18049414  0.13464527    -0.14900
C368        C  0.41358698  0.20524495  0.14166817    -0.30100
H369        H  0.39713949  0.16806931  0.09753401     0.14100
H370        H  0.41465378  0.21610869  0.18023735     0.14700
C371        C  0.40880180  0.07549086  0.27786453    -0.14900
C372        C  0.40874110  0.09417024  0.23533670    -0.30100
H373        H  0.39023207  0.07626807  0.30699903     0.14100
H374        H  0.42576048  0.09125210  0.20395702     0.14700
C375        C  0.05816921  0.17654624  0.15938572    -0.14900
C376        C  0.08655068  0.18490484  0.17496740    -0.30100
H377        H  0.04702381  0.15641506  0.17699317     0.14100
H378        H  0.09663292  0.20638161  0.16053542     0.14700
C379        C  0.15381340  0.09818544  0.17598515    -0.14900
C380        C  0.13702413  0.07747708  0.14892857    -0.30100
H381        H  0.17893507  0.09707919  0.17389912     0.14100
H382        H  0.11211816  0.07629634  0.15432448     0.14700
C383        C  0.06796591  0.07909087  0.31932262    -0.14900
C384        C  0.06905944  0.09775758  0.27670262    -0.30100
H385        H  0.08637051  0.07944522  0.34845518     0.14100
H386        H  0.05209529  0.09488993  0.24544831     0.14700
C387        C  0.08626511  0.28874106  0.12663706    -0.14900
C388        C  0.10335439  0.31473280  0.12504580    -0.30100
H389        H  0.08659158  0.27416097  0.16175929     0.14100
H390        H  0.10015530  0.33047428  0.09186133     0.14700
C391        C  0.17151423  0.39489537  0.15408616    -0.14900
C392        C  0.15615653  0.42136199  0.14620374    -0.30100
H393        H  0.19419484  0.39140349  0.13635145     0.14100
H394        H  0.13460353  0.42536115  0.16750276     0.14700
C395        C  0.08378940  0.38769330  0.24734294    -0.14900
C396        C  0.08180131  0.40355421  0.29266229    -0.30100
H397        H  0.06751755  0.39249285  0.21567611     0.14100
H398        H  0.09952919  0.40132608  0.32279201     0.14700
C399        C  0.42809995  0.31358570  0.13593437    -0.14900
C400        C  0.39902108  0.30502923  0.14808723    -0.30100
H401        H  0.43854218  0.33290482  0.15655165     0.14100
H402        H  0.38902276  0.28434094  0.13110082     0.14700
C403        C  0.34134277  0.39541534  0.12936341    -0.14900
C404        C  0.31986225  0.41756354  0.13529449    -0.30100
H405        H  0.35705579  0.39670878  0.09566071     0.14100
H406        H  0.30617789  0.41836159  0.17145959     0.14700
C407        C  0.41568938  0.39192174  0.24443239    -0.14900
C408        C  0.42679492  0.39822384  0.29265636    -0.30100
H409        H  0.42553806  0.40388529  0.21028243     0.14100
H410        H  0.41885385  0.38573505  0.32754031     0.14700
C411        C  0.08473005  0.09025293  0.73235875    -0.14900
C412        C  0.08303628  0.11046396  0.77222763    -0.30100
H413        H  0.10541762  0.08930374  0.70776775     0.14100
H414        H  0.06371571  0.10904827  0.79991378     0.14700
C415        C  0.17890255  0.08516605  0.88923448    -0.14900
C416        C  0.15645810  0.10649552  0.89246245    -0.30100
H417        H  0.19390008  0.08451626  0.85461083     0.14100
H418        H  0.13981098  0.10483521  0.92480803     0.14700
C419        C  0.09746016  0.19459993  0.87580794    -0.14900
C420        C  0.06789868  0.18604993  0.88402431    -0.30100
H421        H  0.10685283  0.21484240  0.89514584     0.14100
H422        H  0.05819724  0.16712863  0.86139867     0.14700
C423        C  0.08288255  0.30507875  0.85636836    -0.14900
C424        C  0.09792144  0.33200950  0.86295163    -0.30100
H425        H  0.08500550  0.29246696  0.81958012     0.14100
H426        H  0.09312500  0.34535843  0.89830625     0.14700
C427        C  0.08988724  0.41785772  0.76026963    -0.14900
C428        C  0.07893592  0.42858462  0.71394499    -0.30100
H429        H  0.08158755  0.42831872  0.79663550     0.14100
H430        H  0.08549037  0.41811336  0.67671873     0.14700
C431        C  0.17503673  0.40697090  0.85659530    -0.14900
C432        C  0.16222342  0.43399408  0.87010419    -0.30100
H433        H  0.19673773  0.39969716  0.87418262     0.14100
H434        H  0.14173512  0.44197068  0.84933630     0.14700
C435        C  0.30435392  0.08675790  0.88407157    -0.14900
C436        C  0.32968404  0.10452495  0.88866303    -0.30100
H437        H  0.29113287  0.08680594  0.84760741     0.14100
H438        H  0.34422802  0.10158069  0.92334211     0.14700
C439        C  0.41052542  0.09778380  0.77481214    -0.14900
C440        C  0.41076203  0.07885059  0.73299194    -0.30100
H441        H  0.42842500  0.09550532  0.80467159     0.14100
H442        H  0.39157923  0.07873586  0.70533779     0.14700
C443        C  0.39962109  0.18117589  0.87943928    -0.14900
C444        C  0.41436740  0.20814321  0.87165577    -0.30100
H445        H  0.40477381  0.16799274  0.91507041     0.14100
H446        H  0.41218036  0.22051969  0.83434882     0.14700
C447        C  0.33458575  0.40952261  0.84432069    -0.14900
C448        C  0.34965748  0.43219953  0.86959113    -0.30100
H449        H  0.30971454  0.40691942  0.84953912     0.14100
H450        H  0.37373037  0.43700634  0.86029639     0.14700
C451        C  0.41214624  0.33632929  0.85217595    -0.14900
C452        C  0.41911660  0.30647495  0.85904309    -0.30100
H453        H  0.42281746  0.35298463  0.87849332     0.14100
H454        H  0.41026173  0.28878520  0.83298520     0.14700
C455        C  0.42084336  0.41673923  0.74253615    -0.14900
C456        C  0.42563104  0.43101024  0.69596779    -0.30100
H457        H  0.43455714  0.42368353  0.77645390     0.14100
H458        H  0.41148697  0.42609234  0.66166435     0.14700
C459        C  0.34235151  0.33605606  0.68977868    -0.14900
C460        C  0.32113672  0.31375709  0.69811919    -0.30100
H461        H  0.34857875  0.34232908  0.64935606     0.14100
H462        H  0.31499376  0.30714685  0.73842729     0.14700
C463        C  0.32420884  0.16849585  0.67372135    -0.14900
C464        C  0.32422116  0.17388109  0.72631191    -0.30100
H465        H  0.33828236  0.15047539  0.65690130     0.14100
H466        H  0.30916304  0.19169202  0.74188977     0.14700
C467        C  0.18692730  0.31405329  0.70414912    -0.14900
C468        C  0.16583464  0.33654556  0.69784475    -0.30100
H469        H  0.19352189  0.30693905  0.74385437     0.14100
H470        H  0.15918001  0.34343332  0.65806046     0.14700
C471        C  0.33086861  0.31506061  0.33679476    -0.14900
C472        C  0.32057556  0.32780438  0.29148374    -0.30100
H473        H  0.35559519  0.31433015  0.34449713     0.14100
H474        H  0.29581363  0.33013824  0.28511396     0.14700
C475        C  0.17896349  0.17769530  0.73507659    -0.14900
C476        C  0.18123046  0.17047053  0.68332403    -0.30100
H477        H  0.19351782  0.19601230  0.75050473     0.14100
H478        H  0.16806842  0.15145242  0.66741682     0.14700
C479        C  0.17641560  0.32498518  0.34100318    -0.14900
C480        C  0.16782539  0.31176348  0.29498736    -0.30100
H481        H  0.16999881  0.34864130  0.34925202     0.14100
H482        H  0.17272664  0.28754697  0.28834626     0.14700
C483        C  0.31394076  0.19232927  0.30981962    -0.14900
C484        C  0.33528126  0.17025078  0.30988568    -0.30100
H485        H  0.30558123  0.20109686  0.27208937     0.14100
H486        H  0.34367657  0.16172286  0.34774687     0.14700
C487        C  0.17752688  0.18989531  0.32524958    -0.14900
C488        C  0.15477499  0.16918220  0.33325365    -0.30100
H489        H  0.18375772  0.19671397  0.28507163     0.14100
H490        H  0.14837047  0.16259363  0.37345715     0.14700
O491        O  0.19105608  0.69041416  0.42575995    -0.73800
O492        O  0.21956393  0.71679916  0.36386317    -0.52700
C493        C  0.19779411  0.69816572  0.37767927     0.79900
O494        O  0.20123476  0.80599831  0.60979248    -0.58400
O495        O  0.22907595  0.77730783  0.66868616    -0.51400
C496        C  0.20896700  0.79797383  0.65730812     0.72000
O497        O  0.19647225  0.80844490  0.42898481    -0.72900
O498        O  0.22293641  0.78208393  0.36538160    -0.53500
C499        C  0.20260252  0.80177766  0.38019880     0.78000
O500        O  0.19788120  0.68280511  0.60373489    -0.58100
O501        O  0.22408811  0.71057415  0.66579708    -0.51200
C502        C  0.20422194  0.68985164  0.65194749     0.74500
Zr503      Zr  0.21060549  0.70115495  0.51449839     2.54700
O504        O  0.15449182  0.70411615  0.52244196    -0.78700
O505        O  0.21004365  0.64515619  0.50807539    -0.92100
Zr506      Zr  0.21481599  0.79307566  0.51772705     2.64700
O507        O  0.15858432  0.79729171  0.51908475    -0.97000
O508        O  0.22115951  0.84876371  0.52207552    -0.79100
O509        O  0.21112557  0.74800058  0.46545576    -0.82500
O510        O  0.21273894  0.74624618  0.56709553    -2.17200
O511        O  0.31619174  0.67868806  0.59769930    -0.65800
O512        O  0.29499089  0.70923728  0.66168639    -0.50400
C513        C  0.31236103  0.68700803  0.64627370     0.72900
O514        O  0.32527193  0.79877957  0.42088805    -0.58700
O515        O  0.29059392  0.78038145  0.36089166    -0.50700
C516        C  0.31505153  0.79556911  0.37346832     0.74700
O517        O  0.32563047  0.80144825  0.59853561    -0.70100
O518        O  0.29561437  0.77773719  0.66166702    -0.48800
C519        C  0.31777200  0.79591840  0.64680753     0.76100
O520        O  0.31628147  0.68391602  0.41659192    -0.65500
O521        O  0.28906619  0.71394139  0.35871064    -0.52700
C522        C  0.30900239  0.69291057  0.36931471     0.74500
Zr523      Zr  0.30221265  0.69688626  0.50855657     2.77500
O524        O  0.35863081  0.69854097  0.50681057    -0.96200
O525        O  0.29969306  0.64091828  0.50435459    -0.77000
Zr526      Zr  0.30697457  0.78810508  0.51096178     2.70100
O527        O  0.36329117  0.78553478  0.51117124    -0.78300
O528        O  0.30738940  0.84423801  0.50770981    -0.97400
Zr529      Zr  0.25667383  0.74703149  0.41214517     2.21500
Zr530      Zr  0.26015192  0.74344357  0.61511421     2.11100
O531        O  0.30580354  0.74176762  0.56135104    -2.46100
O532        O  0.30420353  0.74329886  0.45856077    -0.78100
O533        O  0.25726166  0.69772051  0.56334528    -0.70300
O534        O  0.25997063  0.79276913  0.46333730    -2.31200
O535        O  0.25539903  0.69942829  0.45989479    -2.27400
O536        O  0.26197241  0.79041443  0.56562918    -0.72000
H537        H  0.19513304  0.74641687  0.59085425     0.80000
H538        H  0.26061047  0.81088054  0.44089840     0.81000
H539        H  0.32410852  0.74065392  0.58301991     0.83300
H540        H  0.25410249  0.68222284  0.43590371     0.80900
H541        H  0.23132857  0.85458641  0.48821500     0.43900
H542        H  0.32704863  0.85021552  0.52495031     0.42900
H543        H  0.36795187  0.76399067  0.52136519     0.42600
H544        H  0.36489431  0.70117208  0.54417342     0.40500
H545        H  0.28412147  0.63500570  0.53155099     0.43600
H546        H  0.22497762  0.64032042  0.47946684     0.38400
H547        H  0.14911804  0.72395515  0.50530235     0.44500
H548        H  0.15155717  0.78100719  0.54407971     0.40900
H549        H  0.36489638  0.67727001  0.49795169     0.45900
H550        H  0.18952976  0.64008595  0.49299677     0.44600
H551        H  0.15438006  0.81685283  0.53768570     0.44700
H552        H  0.31054416  0.84968353  0.46992201     0.45100
C553        C  0.33936604  0.84511544  0.76822504     0.88000
C554        C  0.35918763  0.82615797  0.80690089    -0.52200
C555        C  0.37369470  0.84375041  0.84407715     0.10900
C556        C  0.36716335  0.87836539  0.83900512     0.21900
C557        C  0.31721404  0.86368100  0.80333450    -0.53000
C558        C  0.33162060  0.88162991  0.83970705     0.11000
C559        C  0.36186823  0.86942923  0.74451745    -0.52500
C560        C  0.37680927  0.88660781  0.78208596     0.11600
H561        H  0.36148029  0.80128306  0.80503144     0.16100
H562        H  0.37955784  0.89195613  0.86934810     0.01800
H563        H  0.29223136  0.86373315  0.79821421     0.16400
H564        H  0.36537308  0.87256819  0.70226486     0.16200
C565        C  0.36444175  0.66594579  0.76530236     0.88000
C566        C  0.34786749  0.64193843  0.80095031    -0.52200
C567        C  0.36764271  0.62579836  0.83300779     0.10900
C568        C  0.40171502  0.63509366  0.82607142     0.21900
C569        C  0.38294249  0.68633655  0.80401707    -0.53000
C570        C  0.40259324  0.66989514  0.83587702     0.11000
C571        C  0.38923655  0.64766804  0.73502054    -0.52500
C572        C  0.40837966  0.63118469  0.76700021     0.11600
H573        H  0.32305550  0.63794380  0.79988185     0.16100
H574        H  0.41771400  0.62170199  0.85169007     0.01800
H575        H  0.38038904  0.71115571  0.80612056     0.16400
H576        H  0.39115318  0.64740456  0.69212073     0.16200
C577        C  0.15437054  0.84811683  0.74348473     0.88000
C578        C  0.17542763  0.86701939  0.78012205    -0.52200
C579        C  0.15978293  0.88082895  0.82059763     0.10900
C580        C  0.12470746  0.87381232  0.82132497     0.21900
C581        C  0.13769293  0.82493948  0.78045407    -0.53000
C582        C  0.12193545  0.83837785  0.82122604     0.11000
C583        C  0.12907617  0.87082684  0.72577360    -0.52500
C584        C  0.11363194  0.88431812  0.76669684     0.11600
H585        H  0.20013692  0.87009281  0.77353616     0.16100
H586        H  0.11220695  0.88493421  0.85444001     0.01800
H587        H  0.13797277  0.80018966  0.77441523     0.16400
H588        H  0.12386221  0.87580625  0.68456646     0.16200
C589        C  0.14986573  0.66721509  0.76950817     0.88000
C590        C  0.13130156  0.68716892  0.80888602    -0.52200
C591        C  0.11095618  0.67052015  0.83950889     0.10900
C592        C  0.11100200  0.63593697  0.82800108     0.21900
C593        C  0.16526697  0.64204384  0.80420241    -0.53000
C594        C  0.14453952  0.62566825  0.83479933     0.11000
C595        C  0.12484018  0.64996451  0.73777311    -0.52500
C596        C  0.10500842  0.63292023  0.76839158     0.11600
H597        H  0.13442965  0.71187396  0.81290563     0.16100
H598        H  0.09429760  0.62315046  0.85357970     0.01800
H599        H  0.18997339  0.63758902  0.80378517     0.16400
H600        H  0.12388270  0.64998340  0.69479824     0.16200
N601        N  0.49224589  0.95345772  0.70988676    -0.35100
N602        N  0.04486795  0.50827798  0.72759134    -0.55700
N603        N  0.50573061  0.55733975  0.68656591    -0.35100
N604        N  0.45762938  0.51121653  0.68777369    -0.55700
C605        C  0.03591805  0.94409405  0.70422622     0.28500
C606        C  0.46681558  0.93541707  0.70396293     0.28500
C607        C  0.01971242  0.57213295  0.74173078     0.28500
C608        C  0.48051482  0.57512055  0.67903637     0.28500
C609        C  0.07412289  0.98481636  0.72774148     0.37100
C610        C  0.06157406  0.53234143  0.74593819     0.37100
C611        C  0.42638531  0.97392359  0.72782422     0.37100
C612        C  0.44008818  0.53603090  0.69917549     0.37100
C613        C  0.02870710  0.91521050  0.68446067    -0.20400
C614        C  0.47573753  0.90684505  0.68505246    -0.20400
C615        C  0.00945213  0.60241522  0.73999363    -0.20400
C616        C  0.48951377  0.60405031  0.66103074    -0.24100
C617        C  0.10294421  0.99479533  0.74455219    -0.21400
C618        C  0.09148934  0.52286125  0.75737535    -0.21400
C619        C  0.39651823  0.98244182  0.74185231    -0.21400
C620        C  0.41090251  0.52681001  0.71625700    -0.21400
C621        C  0.06600619  0.95370429  0.71883746    -0.16800
C622        C  0.43616759  0.94322903  0.71893441    -0.16800
C623        C  0.44998723  0.56686138  0.69333389    -0.16800
C624        C  0.05076026  0.56300454  0.75084960    -0.16800
H625        H  0.04451660  0.89659384  0.67586807     0.16100
H626        H  0.46108166  0.88714474  0.67711772     0.16100
H627        H  0.02292812  0.62334925  0.74294976     0.16100
H628        H  0.47475489  0.62355815  0.65261102     0.16100
H629        H  0.12287657  0.98082368  0.75403571     0.14400
H630        H  0.11055082  0.53675171  0.77162757     0.14400
H631        H  0.37670654  0.96765703  0.74920378     0.14400
H632        H  0.39176356  0.54129650  0.72808755     0.14400
H633        H  0.49310613  0.97425763  0.72973237     0.27700
H634        H  0.50616401  0.53662059  0.70729855     0.27700
C635        C  0.33747863  0.84438801  0.25098309     0.88000
C636        C  0.31732401  0.86464924  0.21457186    -0.52200
C637        C  0.33422475  0.88160781  0.17888824     0.10900
C638        C  0.36917438  0.87644458  0.18226931     0.21900
C639        C  0.35736233  0.82462274  0.21348465    -0.53000
C640        C  0.37388337  0.84166402  0.17734157     0.11000
C641        C  0.36037674  0.86719430  0.27614017    -0.52500
C642        C  0.37723074  0.88380466  0.23981301     0.11600
H643        H  0.29224515  0.86584383  0.21732226     0.16100
H644        H  0.38272270  0.89020831  0.15286309     0.01800
H645        H  0.35814452  0.79963852  0.21534312     0.16400
H646        H  0.36262023  0.86977478  0.31861702     0.16200
C647        C  0.14150076  0.84861582  0.30031345     0.88000
C648        C  0.11341232  0.86692519  0.32022853    -0.52200
C649        C  0.09633263  0.87995716  0.28068274     0.10900
C650        C  0.10858436  0.87318525  0.22497596     0.21900
C651        C  0.12798663  0.82496400  0.26121525    -0.53000
C652        C  0.11042889  0.83783973  0.22203372     0.11000
C653        C  0.15966785  0.87177453  0.26553250    -0.52500
C654        C  0.14250870  0.88460923  0.22574090     0.11600
H655        H  0.10777230  0.86953256  0.36190441     0.16100
H656        H  0.09425504  0.88387255  0.19357171     0.01800
H657        H  0.13153207  0.80028658  0.26483176     0.16400
H658        H  0.18372252  0.87790508  0.27245759     0.16200
N659        N  0.45020080  0.80092386  0.01119360    -0.35100
N660        N  0.49791634  0.80327049  0.92902779    -0.55700
N661        N  0.04960513  0.80662593  0.02030982    -0.35100
N662        N  0.49628063  0.79700621  0.09645738    -0.55700
C663        C  0.43303783  0.79621593  0.96724682     0.28500
C664        C  0.43220269  0.79351160  0.05343891     0.28500
C665        C  0.06571246  0.81935968  0.97936413     0.28500
C666        C  0.06176398  0.81805928  0.06561078     0.28500
C667        C  0.47280594  0.80987098  0.89924473     0.37100
C668        C  0.03166044  0.80242238  0.90551022     0.37100
C669        C  0.47040490  0.80289109  0.12510279     0.37100
C670        C  0.02128486  0.79894242  0.12832941     0.37100
C671        C  0.40400214  0.78518213  0.98177129    -0.20400
C672        C  0.40344054  0.78360307  0.03617984    -0.20400
C673        C  0.08923017  0.83788793  0.99897896    -0.20400
C674        C  0.08669806  0.83713026  0.05327433    -0.20400
C675        C  0.48198863  0.82288417  0.85137745    -0.21400
C676        C  0.02586675  0.79676676  0.85251221    -0.21400
C677        C  0.47828474  0.81451290  0.17420821    -0.21400
C678        C  0.01099778  0.79005508  0.17824224    -0.21400
C679        C  0.44169538  0.80474945  0.91498636    -0.16800
C680        C  0.43969146  0.79915075  0.10696514    -0.16800
C681        C  0.05050185  0.81246493  0.11769358    -0.16800
C682        C  0.05949013  0.81533512  0.92476022    -0.16800
H683        H  0.38493742  0.77953772  0.95586569     0.16100
H684        H  0.38385333  0.77661601  0.06041426     0.16100
H685        H  0.10604342  0.85125093  0.97652028     0.16100
H686        H  0.10114483  0.84989052  0.08039678     0.16100
H687        H  0.46735409  0.83084661  0.81946160     0.14400
H688        H  0.04221688  0.79797031  0.81991569     0.14400
H689        H  0.46279532  0.82189533  0.20543617     0.14400
H690        H  0.02430509  0.78934977  0.21444032     0.14400
H691        H  0.47098129  0.81296054  0.01272669     0.27700
H692        H  0.03212641  0.79012367  0.01752962     0.27700
C693        C  0.14069052  0.65006086  0.29508654     0.88000
C694        C  0.16162024  0.63571873  0.25243020    -0.52200
C695        C  0.14566173  0.62391016  0.21075711     0.10900
C696        C  0.11042873  0.62862297  0.21447777     0.21900
C697        C  0.12142030  0.67447932  0.26612821    -0.53000
C698        C  0.10592841  0.66351337  0.22338108     0.11000
C699        C  0.11745575  0.62441077  0.30983431    -0.52500
C700        C  0.10164604  0.61311325  0.26730129     0.11600
H701        H  0.18653043  0.63331819  0.25657490     0.16100
H702        H  0.09740190  0.61927542  0.18030327     0.01800
H703        H  0.12016463  0.69838588  0.27841937     0.16400
H704        H  0.11391726  0.61601956  0.35002772     0.16200
N705        N  0.45756747  0.47903299  0.30495243    -0.35100
N706        N  0.48642473  0.95071779  0.32370808    -0.55700
N707        N  0.04872832  0.48317054  0.30893373    -0.35100
N708        N  0.50434792  0.52709694  0.30617359    -0.55700
C709        C  0.42332386  0.97139762  0.29302454     0.28500
C710        C  0.43967657  0.50394823  0.29516427     0.28500
C711        C  0.05269194  0.97376087  0.32631885     0.28500
C712        C  0.06634789  0.50879496  0.30164853     0.28500
C713        C  0.46087601  0.93274405  0.32747299     0.37100
C714        C  0.01178480  0.93370329  0.34054841     0.37100
C715        C  0.47887875  0.54447232  0.31419424     0.37100
C716        C  0.02495217  0.54826025  0.31316646     0.37100
C717        C  0.39594044  0.97946885  0.26780197    -0.20400
C718        C  0.41084088  0.49443274  0.27760453    -0.20400
C719        C  0.08251356  0.98266103  0.31193839    -0.20400
C720        C  0.09624351  0.50023813  0.28796569    -0.20400
C721        C  0.46882953  0.90346466  0.34478359    -0.21400
C722        C  0.00213907  0.90416354  0.35398398    -0.21400
C723        C  0.48726040  0.57371804  0.33064978    -0.21400
C724        C  0.01491668  0.57763915  0.32584269    -0.21400
C725        C  0.43132381  0.94112418  0.30881559    -0.16800
C726        C  0.44825356  0.53497292  0.30352730    -0.16800
C727        C  0.05635647  0.53969327  0.30721661    -0.16800
C728        C  0.04297119  0.94286094  0.33370394    -0.16800
H729        H  0.37710812  0.96455506  0.25597755     0.16100
H730        H  0.39130028  0.50874084  0.26710541     0.16100
H731        H  0.10209995  0.96791735  0.30375433     0.16100
H732        H  0.11577370  0.51522813  0.27950420     0.16100
H733        H  0.45371196  0.88370937  0.35006113     0.14400
H734        H  0.01650904  0.88447154  0.36306698     0.14400
H735        H  0.47212736  0.59278259  0.33986890     0.14400
H736        H  0.02889392  0.59758772  0.33530828     0.14400
H737        H  0.47885108  0.47911387  0.32379512     0.27700
H738        H  0.02639742  0.48243742  0.32408181     0.27700
N739        N  0.16602243  0.95348822  0.01500095    -0.35100
N740        N  0.18022065  0.50802016  0.93657127    -0.55700
N741        N  0.17545568  0.55282973  0.02126567    -0.35100
N742        N  0.16693028  0.50173763  0.09646294    -0.55700
C743        C  0.17176271  0.93643583  0.97141916     0.28500
C744        C  0.16364539  0.93394153  0.05686410     0.28500
C745        C  0.17359251  0.57179163  0.97856621     0.28500
C746        C  0.16357091  0.56824189  0.06316832     0.28500
C747        C  0.17357034  0.97888409  0.90377410     0.37100
C748        C  0.18616717  0.53381870  0.90770787     0.37100
C749        C  0.14848823  0.97226877  0.12606889     0.37100
C750        C  0.16525562  0.52570586  0.13033037     0.37100
C751        C  0.17371792  0.90561495  0.98598455    -0.20400
C752        C  0.16895479  0.90408778  0.03980927    -0.20400
C753        C  0.16178234  0.60002575  0.99422924    -0.20400
C754        C  0.15491654  0.59758331  0.04709159    -0.20400
C755        C  0.17105255  0.98992778  0.85230233    -0.21400
C756        C  0.19200861  0.52610470  0.85542251    -0.21400
C757        C  0.13251939  0.98020297  0.17177909    -0.21400
C758        C  0.16615683  0.51513143  0.18222290    -0.21400
C759        C  0.17059172  0.94746180  0.91850506    -0.16800
C760        C  0.15319773  0.94160888  0.10849658    -0.16800
C761        C  0.16032049  0.55677090  0.11559597    -0.16800
C762        C  0.18152262  0.56430980  0.92555087    -0.16800
H763        H  0.17706854  0.88597189  0.96054854     0.16100
H764        H  0.16794354  0.88311278  0.06321063     0.16100
H765        H  0.15768989  0.62027218  0.97011060     0.16100
H766        H  0.14435991  0.61549845  0.07054465     0.16100
H767        H  0.16725004  0.97671778  0.81671919     0.14400
H768        H  0.19642287  0.54162309  0.82247906     0.14400
H769        H  0.12211580  0.96487901  0.20087354     0.14400
H770        H  0.16483177  0.52866619  0.21800501     0.14400
H771        H  0.15949991  0.97634695  0.01458598     0.27700
H772        H  0.18595812  0.53137034  0.02230512     0.27700
N773        N  0.45614755  0.72049417  0.02898685    -0.35100
N774        N  0.50258114  0.71054686  0.10830428    -0.55700
N775        N  0.04358713  0.70815705  0.01779667    -0.35100
N776        N  0.50580790  0.72331084  0.94862829    -0.55700
C777        C  0.43801881  0.71191166  0.07067858     0.28500
C778        C  0.43965924  0.71534691  0.98437927     0.28500
C779        C  0.06260826  0.70669343  0.06014122     0.28500
C780        C  0.06101688  0.71667472  0.97543923     0.28500
C781        C  0.47799291  0.71359265  0.14114130     0.37100
C782        C  0.02371104  0.69233474  0.12913914     0.37100
C783        C  0.48091178  0.72749384  0.91711472     0.37100
C784        C  0.01988792  0.71624398  0.90640939     0.37100
C785        C  0.40919175  0.70281501  0.05241838    -0.20400
C786        C  0.41024092  0.70488286  0.99816288    -0.20400
C787        C  0.09236320  0.71508946  0.04484313    -0.20400
C788        C  0.09132794  0.72155563  0.99142518    -0.20400
C789        C  0.48748055  0.71141214  0.19342215    -0.21400
C790        C  0.01433486  0.67676552  0.17469024    -0.21400
C791        C  0.49057317  0.73457196  0.86600183    -0.21400
C792        C  0.00955855  0.71127692  0.85529217    -0.21400
C793        C  0.44689069  0.71123690  0.12471260    -0.16800
C794        C  0.45000744  0.72017610  0.93146185    -0.16800
C795        C  0.05139481  0.71556679  0.92190826    -0.16800
C796        C  0.05464628  0.69408655  0.11017963    -0.16800
H797        H  0.38949626  0.69499924  0.07562761     0.16100
H798        H  0.39134151  0.69923566  0.97192540     0.16100
H799        H  0.11289385  0.71538237  0.06926993     0.16100
H800        H  0.11095572  0.72768681  0.96660756     0.16100
H801        H  0.47303815  0.71149247  0.22859015     0.14400
H802        H  0.02827398  0.66353402  0.20196464     0.14400
H803        H  0.47619212  0.73819927  0.83155564     0.14400
H804        H  0.02339334  0.70708020  0.82024388     0.14400
H805        H  0.47778721  0.73097633  0.03094117     0.27700
H806        H  0.02161747  0.69852892  0.01614859     0.27700
C807        C  0.36247704  0.64261498  0.28018395     0.88000
C808        C  0.38214019  0.66621438  0.24812075    -0.52200
C809        C  0.39809177  0.65334308  0.20679151     0.10900
C810        C  0.39311796  0.61856216  0.20190131     0.21900
C811        C  0.34161915  0.62671556  0.23880711    -0.53000
C812        C  0.35800956  0.61431992  0.19751697     0.11000
C813        C  0.38551437  0.61752895  0.29707882    -0.52500
C814        C  0.40147812  0.60491145  0.25594391     0.11600
H815        H  0.38318739  0.69054540  0.25753138     0.16100
H816        H  0.40623327  0.60800075  0.16869236     0.01800
H817        H  0.31653861  0.62566906  0.24173608     0.16400
H818        H  0.38915463  0.61067586  0.33801440     0.16200
N819        N  0.31924249  0.55138401  0.01371607    -0.35100
N820        N  0.29967347  0.00595238  0.93697912    -0.55700
N821        N  0.29726453  0.96006935  0.01990711    -0.35100
N822        N  0.28684538  0.00563018  0.10210494    -0.55700
C823        C  0.31608632  0.57100621  0.97215198     0.28500
C824        C  0.31204421  0.56702000  0.05822876     0.28500
C825        C  0.29658923  0.94240815  0.97602061     0.28500
C826        C  0.28769323  0.94228835  0.06093660     0.28500
C827        C  0.33199982  0.53515146  0.90004981     0.37100
C828        C  0.31277130  0.98213276  0.91110837     0.37100
C829        C  0.31796298  0.52417636  0.12399000     0.37100
C830        C  0.29244163  0.98059280  0.13282762     0.37100
C831        C  0.30650481  0.59948047  0.99057390    -0.20400
C832        C  0.30397978  0.59696384  0.04484773    -0.20400
C833        C  0.28569966  0.91321640  0.98918330    -0.20400
C834        C  0.27966825  0.91330615  0.04267428    -0.20400
C835        C  0.34491397  0.52895680  0.85084009    -0.21400
C836        C  0.32748866  0.99251343  0.86536940    -0.21400
C837        C  0.32528601  0.51282620  0.17385273    -0.21400
C838        C  0.29977787  0.98966524  0.18378408    -0.21400
C839        C  0.32520108  0.56499919  0.91922587    -0.16800
C840        C  0.31578385  0.55590671  0.11077727    -0.16800
C841        C  0.29165047  0.94977968  0.11485793    -0.16800
C842        C  0.31032201  0.95104689  0.92727259    -0.16800
H843        H  0.30278813  0.62025246  0.96755425     0.16100
H844        H  0.29778465  0.61535016  0.07157998     0.16100
H845        H  0.28336240  0.89339478  0.96391541     0.16100
H846        H  0.27213243  0.89365987  0.06610794     0.16100
H847        H  0.35150912  0.54519555  0.82006059     0.14400
H848        H  0.33967513  0.97896068  0.83615564     0.14400
H849        H  0.33047296  0.52582641  0.20915625     0.14400
H850        H  0.30556825  0.97510405  0.21721774     0.14400
H851        H  0.33007468  0.53015155  0.01283014     0.27700
H852        H  0.30915561  0.98083510  0.02325767     0.27700
C853        C  0.32067336  0.57865434  0.15408679    -0.14900
C854        C  0.34503813  0.59792028  0.15138665    -0.30100
H855        H  0.30817319  0.57577731  0.19124495     0.14100
H856        H  0.35915713  0.59804146  0.11560746     0.14700
C857        C  0.41875192  0.66936117  0.16820264    -0.14900
C858        C  0.42397897  0.69985220  0.16480529    -0.30100
H859        H  0.43059273  0.65467866  0.13991496     0.14100
H860        H  0.41349757  0.71584513  0.19234360     0.14700
C861        C  0.42387465  0.55889956  0.29959016    -0.14900
C862        C  0.42529054  0.58078167  0.26179199    -0.30100
H863        H  0.40391964  0.55729657  0.32585380     0.14100
H864        H  0.44392963  0.58024884  0.23272469     0.14700
C865        C  0.07959252  0.67813539  0.14030347    -0.14900
C866        C  0.08519003  0.68346480  0.19164741    -0.30100
H867        H  0.09321212  0.66105294  0.11939258     0.14100
H868        H  0.07352283  0.70238565  0.21132630     0.14700
C869        C  0.16050810  0.60415897  0.17066548    -0.14900
C870        C  0.14719457  0.57742351  0.15669834    -0.30100
H871        H  0.18293110  0.61075080  0.15436146     0.14100
H872        H  0.12630875  0.56966574  0.17711593     0.14700
C873        C  0.08022221  0.56459553  0.30557387    -0.14900
C874        C  0.07862866  0.58779640  0.27010177    -0.30100
H875        H  0.09992165  0.56289409  0.33199899     0.14100
H876        H  0.06044272  0.58757645  0.24050770     0.14700
C877        C  0.06643807  0.82771585  0.16280983    -0.14900
C878        C  0.09453837  0.81950461  0.18059142    -0.30100
H879        H  0.05420406  0.84649166  0.18184936     0.14100
H880        H  0.10582144  0.79920295  0.16478403     0.14700
C881        C  0.15493535  0.90937480  0.19046020    -0.14900
C882        C  0.14243184  0.91563769  0.14297849    -0.30100
H883        H  0.17461179  0.92288450  0.20385722     0.14100
H884        H  0.12458150  0.90067061  0.12717505     0.14700
C885        C  0.06945358  0.90035086  0.28923426    -0.14900
C886        C  0.06707117  0.91870733  0.33158869    -0.30100
H887        H  0.05286104  0.90274068  0.25725076     0.14100
H888        H  0.08511766  0.91900173  0.36137281     0.14700
C889        C  0.41390446  0.80508935  0.14495869    -0.14900
C890        C  0.39517030  0.82926992  0.13672638    -0.30100
H891        H  0.41343261  0.79294199  0.18271396     0.14100
H892        H  0.39846123  0.84312523  0.10109370     0.14700
C893        C  0.32158897  0.90419063  0.14090172    -0.14900
C894        C  0.29892451  0.92426141  0.15270835    -0.30100
H895        H  0.33421528  0.90693046  0.10380615     0.14100
H896        H  0.28845230  0.92403343  0.19190907     0.14700
C897        C  0.40063268  0.90758634  0.25210563    -0.14900
C898        C  0.40829363  0.91621431  0.30123424    -0.30100
H899        H  0.41167991  0.91921550  0.21868522     0.14100
H900        H  0.39891320  0.90467366  0.33599412     0.14700
C901        C  0.07273918  0.58603140  0.77249458    -0.14900
C902        C  0.08227605  0.61114582  0.74549589    -0.30100
H903        H  0.08281564  0.58052796  0.81064188     0.14100
H904        H  0.07445311  0.61485883  0.70512936     0.14700
C905        C  0.17931218  0.58920760  0.88470923    -0.14900
C906        C  0.15119221  0.59962543  0.87126050    -0.30100
H907        H  0.20024142  0.59837428  0.86649130     0.14100
H908        H  0.13117165  0.58888660  0.89025533     0.14700
C909        C  0.09143894  0.68273608  0.88299105    -0.14900
C910        C  0.07536525  0.70918386  0.88046683    -0.30100
H911        H  0.08717226  0.66722815  0.91626305     0.14100
H912        H  0.07660237  0.72353993  0.84510917     0.14700
C913        C  0.07911713  0.83254946  0.88595058    -0.14900
C914        C  0.10353427  0.82022740  0.86071966    -0.30100
H915        H  0.07186123  0.85586459  0.87684207     0.14100
H916        H  0.10925234  0.79617672  0.86757190     0.14700
C917        C  0.08890102  0.90747704  0.76001415    -0.14900
C918        C  0.09062893  0.92996790  0.72326416    -0.30100
H919        H  0.06980574  0.90724858  0.78821725     0.14100
H920        H  0.11110479  0.93219157  0.69830501     0.14700
C921        C  0.17476019  0.90226507  0.85814177    -0.14900
C922        C  0.15879554  0.92612242  0.87761668    -0.30100
H923        H  0.19876557  0.89876515  0.86931585     0.14100
H924        H  0.13588611  0.93118511  0.86234973     0.14700
C925        C  0.33016307  0.59180683  0.88296966    -0.14900
C926        C  0.35915968  0.60031917  0.86985441    -0.30100
H927        H  0.31027934  0.60466273  0.86904400     0.14100
H928        H  0.37823243  0.58746790  0.88706227     0.14700
C929        C  0.43223019  0.60972449  0.74772026    -0.14900
C930        C  0.42772283  0.59174303  0.70536993    -0.30100
H931        H  0.45246407  0.60605019  0.77237841     0.14100
H932        H  0.40609767  0.59273979  0.68362081     0.14700
C933        C  0.42270274  0.68228494  0.87824266    -0.14900
C934        C  0.42835189  0.71219008  0.88783582    -0.30100
H935        H  0.43403947  0.66528537  0.90325847     0.14100
H936        H  0.41893746  0.73029614  0.86292860     0.14700
C937        C  0.31391281  0.90375300  0.87249016    -0.14900
C938        C  0.32753460  0.92770954  0.89631335    -0.30100
H939        H  0.28885574  0.90144401  0.87424124     0.14100
H940        H  0.35204180  0.93211333  0.89048478     0.14700
C941        C  0.39492599  0.83190973  0.88520910    -0.14900
C942        C  0.41679686  0.81069252  0.87547231    -0.30100
H943        H  0.39527977  0.84403195  0.92271697     0.14100
H944        H  0.41889340  0.80088188  0.83615084     0.14700
C945        C  0.39994973  0.91144518  0.77191532    -0.14900
C946        C  0.41300396  0.91777346  0.72459998    -0.30100
H947        H  0.40690345  0.92515523  0.80574119     0.14100
H948        H  0.40806714  0.90356366  0.69049241     0.14700
C949        C  0.32187922  0.82598546  0.72828399    -0.14900
C950        C  0.33585141  0.81198389  0.68760678    -0.30100
H951        H  0.29677025  0.82461070  0.73151783     0.14100
H952        H  0.36060453  0.81499947  0.68141086     0.14700
C953        C  0.32959238  0.66963381  0.68685505    -0.14900
C954        C  0.34296512  0.68345737  0.72866101    -0.30100
H955        H  0.33406812  0.64542214  0.67946557     0.14100
H956        H  0.34016752  0.70810967  0.73411149     0.14700
C957        C  0.19364330  0.81303454  0.70281552    -0.14900
C958        C  0.17082907  0.83366482  0.69684864    -0.30100
H959        H  0.20081742  0.80651732  0.74253382     0.14100
H960        H  0.16351576  0.84007260  0.65716940     0.14700
C961        C  0.33293726  0.81072505  0.33092948    -0.14900
C962        C  0.31902635  0.82584186  0.29106557    -0.30100
H963        H  0.35795349  0.81205293  0.33502733     0.14100
H964        H  0.29387379  0.82617174  0.28913055     0.14700
C965        C  0.17241995  0.68537868  0.73444667    -0.14900
C966        C  0.18710844  0.67213057  0.69324619    -0.30100
H967        H  0.17489407  0.71003501  0.74040388     0.14100
H968        H  0.18281224  0.64789178  0.68549522     0.14700
C969        C  0.18521081  0.81723959  0.33703963    -0.14900
C970        C  0.16001075  0.83463835  0.34545462    -0.30100
H971        H  0.19262810  0.81313027  0.29650409     0.14100
H972        H  0.15216370  0.83841331  0.38584547     0.14700
C973        C  0.32455743  0.67866505  0.32298417    -0.14900
C974        C  0.34555056  0.65606207  0.32752504    -0.30100
H975        H  0.31895581  0.68739094  0.28375265     0.14100
H976        H  0.35112058  0.64728847  0.36673610     0.14700
C977        C  0.17952916  0.68502583  0.33430625    -0.14900
C978        C  0.15829167  0.66270330  0.34153235    -0.30100
H979        H  0.18400835  0.69369307  0.29447040     0.14100
H980        H  0.15372332  0.65347504  0.38093299     0.14700
O981        O  0.68636742  0.19073319  0.41285366    -0.73800
O982        O  0.71892155  0.21571094  0.35533852    -0.52700
C983        C  0.69566178  0.19820005  0.36583450     0.79900
O984        O  0.69959404  0.30561108  0.60475095    -0.58400
O985        O  0.71929832  0.27194126  0.66554514    -0.51400
C986        C  0.70393668  0.29605599  0.65250701     0.72000
O987        O  0.70030783  0.31130726  0.42697701    -0.72900
O988        O  0.72279428  0.28133530  0.36367847    -0.53500
C989        C  0.70567671  0.30395090  0.37854935     0.78000
O990        O  0.68320913  0.18151848  0.59112445    -0.58100
O991        O  0.71050550  0.20287758  0.65890571    -0.51200
C992        C  0.68892334  0.18527028  0.64062489     0.74500
Zr993      Zr  0.70151434  0.19943913  0.50477150     2.54700
O994        O  0.64548649  0.20560503  0.50241221    -0.78700
O995        O  0.69679355  0.14379288  0.49599264    -0.92100
Zr996      Zr  0.71166647  0.29028043  0.51459073     2.64700
O997        O  0.65547797  0.29494746  0.51434717    -0.97000
O998        O  0.71944607  0.34576131  0.51956268    -0.79100
O999        O  0.70666413  0.24693119  0.45860791    -0.82500
O1000       O  0.70431841  0.24298129  0.56109801    -2.17200
O1001       O  0.80369560  0.16955461  0.59838726    -0.65800
O1002       O  0.78110885  0.19906910  0.66221564    -0.50400
C1003       C  0.79852799  0.17683770  0.64683875     0.72900
O1004       O  0.82346613  0.29376589  0.43126024    -0.58700
O1005       O  0.79163070  0.27604361  0.36604197    -0.50700
C1006       C  0.81552720  0.29083890  0.38233646     0.74700
O1007       O  0.81240413  0.29578058  0.61138537    -0.70100
O1008       O  0.78273963  0.26748739  0.66914761    -0.48800
C1009       C  0.80325130  0.28826571  0.65853857     0.76100
O1010       O  0.81515834  0.18336459  0.42235233    -0.65500
O1011       O  0.78714615  0.20963480  0.36037674    -0.52700
C1012       C  0.80876664  0.19102226  0.37433764     0.74500
Zr1013     Zr  0.79260081  0.18994179  0.51032242     2.77500
O1014       O  0.84774227  0.17874775  0.51672367    -0.96200
O1015       O  0.78117847  0.13562892  0.49632654    -0.77000
Zr1016     Zr  0.80267883  0.28064326  0.51948126     2.70100
O1017       O  0.85811823  0.27173708  0.52753220    -0.78300
O1018       O  0.80884422  0.33646453  0.51965129    -0.97400
Zr1019     Zr  0.75413999  0.24381452  0.41096842     2.21500
Zr1020     Zr  0.74926934  0.23576636  0.61458708     2.11100
O1021       O  0.79710993  0.23334105  0.56661799    -2.46100
O1022       O  0.79913233  0.23715115  0.46390866    -0.78100
O1023       O  0.74557098  0.19169017  0.55920432    -0.70300
O1024       O  0.75848013  0.28816789  0.46554742    -2.31200
O1025       O  0.74835072  0.19559470  0.45590537    -2.27400
O1026       O  0.75580002  0.28340280  0.56827771    -0.72000
H1027       H  0.68589710  0.24415164  0.58283427     0.80000
H1028       H  0.76096644  0.30668056  0.44437773     0.81000
H1029       H  0.81436272  0.23088400  0.59038076     0.83300
H1030       H  0.74725705  0.17874643  0.43113091     0.80900
H1031       H  0.73780980  0.34827310  0.54250624     0.43900
H1032       H  0.83060854  0.34006690  0.50860945     0.42900
H1033       H  0.86076117  0.26236367  0.56306290     0.42600
H1034       H  0.85516455  0.19112127  0.54695597     0.40500
H1035       H  0.79183025  0.12473779  0.52555766     0.43600
H1036       H  0.67582037  0.13884223  0.50975286     0.38400
H1037       H  0.64049202  0.21836164  0.53363649     0.44500
H1038       H  0.65162483  0.31648194  0.50306500     0.40900
H1039       H  0.84882945  0.15710346  0.52921741     0.45900
H1040       H  0.71106845  0.13529381  0.52290424     0.44600
H1041       H  0.64868567  0.28233032  0.48397835     0.44700
H1042       H  0.79638485  0.34389384  0.48937300     0.45100
C1043       C  0.85101378  0.34615480  0.74320981     0.88000
C1044       C  0.87105998  0.32661628  0.78082642    -0.52200
C1045       C  0.88444686  0.34340542  0.82038589     0.10900
C1046       C  0.87651201  0.37779967  0.81849332     0.21900
C1047       C  0.82747147  0.36260200  0.77937635    -0.53000
C1048       C  0.84087678  0.37964396  0.81856815     0.11000
C1049       C  0.87282197  0.37200125  0.72337299    -0.52500
C1050       C  0.88627910  0.38849620  0.76302328     0.11600
H1051       H  0.87436533  0.30201849  0.77611928     0.16100
H1052       H  0.88807532  0.39078896  0.85051238     0.01800
H1053       H  0.80259690  0.36171616  0.77329658     0.16400
H1054       H  0.87677363  0.37683309  0.68168300     0.16200
C1055       C  0.85062090  0.15515853  0.76415500     0.88000
C1056       C  0.83312094  0.13199250  0.79979027    -0.52200
C1057       C  0.85191403  0.11683918  0.83456574     0.10900
C1058       C  0.88610389  0.12621138  0.83043265     0.21900
C1059       C  0.86794252  0.17654390  0.80248080    -0.53000
C1060       C  0.88671824  0.16118200  0.83689245     0.11000
C1061       C  0.87636461  0.13617711  0.73715840    -0.52500
C1062       C  0.89492594  0.12097787  0.77243003     0.11600
H1063       H  0.80825053  0.12831501  0.79803713     0.16100
H1064       H  0.90124028  0.11374519  0.85883398     0.01800
H1065       H  0.86552689  0.20142545  0.80218908     0.16400
H1066       H  0.87982471  0.13536573  0.69457532     0.16200
C1067       C  0.65209391  0.35210161  0.72913263     0.88000
C1068       C  0.67118716  0.36927740  0.77081644    -0.52200
C1069       C  0.65340094  0.38262504  0.80904141     0.10900
C1070       C  0.61832003  0.37685115  0.80271121     0.21900
C1071       C  0.63256406  0.32869685  0.76064432    -0.53000
C1072       C  0.61497348  0.34153834  0.79927354     0.11000
C1073       C  0.62879372  0.37592754  0.70820607    -0.52500
C1074       C  0.61097735  0.38888648  0.74692391     0.11600
H1075       H  0.69625982  0.37140577  0.76939999     0.16100
H1076       H  0.60406187  0.38739419  0.83445369     0.01800
H1077       H  0.63284488  0.30405118  0.75339026     0.16400
H1078       H  0.62631779  0.38144458  0.66645749     0.16200
C1079       C  0.64459176  0.15354904  0.76693667     0.88000
C1080       C  0.62662983  0.17682240  0.80143369    -0.52200
C1081       C  0.60656199  0.16332818  0.83676771     0.10900
C1082       C  0.60614580  0.12816459  0.83440724     0.21900
C1083       C  0.66011402  0.13140193  0.80691529    -0.53000
C1084       C  0.63970781  0.11815286  0.84202989     0.11000
C1085       C  0.61887593  0.13358566  0.74110557    -0.52500
C1086       C  0.59892044  0.12033745  0.77690113     0.11600
H1087       H  0.62997047  0.20158649  0.79861188     0.16100
H1088       H  0.58981265  0.11723560  0.86318196     0.01800
H1089       H  0.68481321  0.12678637  0.80744278     0.16400
H1090       H  0.61603028  0.13004207  0.69911128     0.16200
N1091       N  0.99861099  0.46054145  0.71095594    -0.35100
N1092       N  0.53979335  0.00183477  0.70358446    -0.55700
N1093       N  0.00527687  0.05465837  0.71977250    -0.35100
N1094       N  0.95996715  0.00625245  0.70069238    -0.55700
C1095       C  0.53092769  0.44619248  0.68185964     0.28500
C1096       C  0.97417770  0.44317162  0.69577190     0.28500
C1097       C  0.51649617  0.06620991  0.71242359     0.28500
C1098       C  0.97997744  0.07170749  0.70813401     0.28500
C1099       C  0.57196421  0.48606358  0.69261698     0.37100
C1100       C  0.55808772  0.02651269  0.71340579     0.37100
C1101       C  0.93152508  0.47932853  0.71899133     0.37100
C1102       C  0.94030542  0.02988529  0.70930241     0.37100
C1103       C  0.52134191  0.41693575  0.66731964    -0.20400
C1104       C  0.98481180  0.41612965  0.67324286    -0.20400
C1105       C  0.50637276  0.09597847  0.70279821    -0.20400
C1106       C  0.98892518  0.10178519  0.69714430    -0.24100
C1107       C  0.60148701  0.49552973  0.70670411    -0.21400
C1108       C  0.58843938  0.01719928  0.72099402    -0.21400
C1109       C  0.90084819  0.48624896  0.73026372    -0.21400
C1110       C  0.91039223  0.01887818  0.71689223    -0.21400
C1111       C  0.56213489  0.45507088  0.68962973    -0.16800
C1112       C  0.94277028  0.44954488  0.70724068    -0.16800
C1113       C  0.94885897  0.06130742  0.70999872    -0.16800
C1114       C  0.54800406  0.05742772  0.71498204    -0.16800
H1115       H  0.53581344  0.39736461  0.65813609     0.16100
H1116       H  0.97111425  0.39713482  0.65847442     0.16100
H1117       H  0.52044238  0.11614745  0.69441015     0.16100
H1118       H  0.97411956  0.12095175  0.68684494     0.16100
H1119       H  0.62090634  0.48118603  0.71770328     0.14400
H1120       H  0.60837256  0.03148045  0.72967476     0.14400
H1121       H  0.88129126  0.47060819  0.73239950     0.14400
H1122       H  0.88966388  0.03206097  0.72474602     0.14400
H1123       H  0.99740571  0.47937358  0.73587778     0.27700
H1124       H  0.00513888  0.03249861  0.73539883     0.27700
C1125       C  0.84535453  0.33272032  0.25615996     0.88000
C1126       C  0.82837915  0.35370788  0.21649297    -0.52200
C1127       C  0.84755943  0.36678688  0.17925948     0.10900
C1128       C  0.88159360  0.35709921  0.18465631     0.21900
C1129       C  0.86229382  0.30885170  0.22186164    -0.53000
C1130       C  0.88163029  0.32160180  0.18473933     0.11000
C1131       C  0.87106378  0.35333170  0.27898195    -0.52500
C1132       C  0.89023879  0.36585152  0.24129875     0.11600
H1133       H  0.80369282  0.35824997  0.21851752     0.16100
H1134       H  0.89671576  0.36801505  0.15412900     0.01800
H1135       H  0.85980362  0.28412448  0.22742381     0.16400
H1136       H  0.87388533  0.35715293  0.32108005     0.16200
C1137       C  0.65851802  0.32767234  0.25523135     0.88000
C1138       C  0.63188802  0.34618949  0.28099580    -0.52200
C1139       C  0.61387969  0.36154137  0.24512190     0.10900
C1140       C  0.62374997  0.35665468  0.18762276     0.21900
C1141       C  0.64258213  0.30638804  0.21514942    -0.53000
C1142       C  0.62412081  0.32152009  0.18021861     0.11000
C1143       C  0.67636560  0.35126632  0.22093560    -0.52500
C1144       C  0.65796968  0.36670664  0.18589412     0.11600
H1145       H  0.62778134  0.34708431  0.32341094     0.16100
H1146       H  0.60902699  0.36896850  0.15846014     0.01800
H1147       H  0.64502725  0.28148577  0.21519130     0.16400
H1148       H  0.70101682  0.35576971  0.22476135     0.16200
N1149       N  0.95580989  0.29370094  0.99495724    -0.35100
N1150       N  0.00232766  0.29205772  0.91029559    -0.55700
N1151       N  0.54874968  0.30093525  0.99067938    -0.35100
N1152       N  0.00424251  0.28678969  0.07556538    -0.55700
C1153       C  0.93678505  0.29484863  0.95249286     0.28500
C1154       C  0.93804424  0.29543608  0.03918702     0.28500
C1155       C  0.56238108  0.31509259  0.94859664     0.28500
C1156       C  0.56518870  0.30893605  0.03406632     0.28500
C1157       C  0.97701881  0.29690540  0.87998041     0.37100
C1158       C  0.52256892  0.30306814  0.88087841     0.37100
C1159       C  0.98011631  0.29355456  0.10784445     0.37100
C1160       C  0.52737322  0.29171172  0.10266262     0.37100
C1161       C  0.90633722  0.29583434  0.97016795    -0.20400
C1162       C  0.90713624  0.29681720  0.02446894    -0.20400
C1163       C  0.58857441  0.33087052  0.96509411    -0.20400
C1164       C  0.59040189  0.32692022  0.01890528    -0.20400
C1165       C  0.98609651  0.30347923  0.82831211    -0.21400
C1166       C  0.51355544  0.29833493  0.82900503    -0.21400
C1167       C  0.99041564  0.29627431  0.15955751    -0.21400
C1168       C  0.51906324  0.28464959  0.15449490    -0.21400
C1169       C  0.94589856  0.29760997  0.89837067    -0.16800
C1170       C  0.94905448  0.29869013  0.09185887    -0.16800
C1171       C  0.55701913  0.30221448  0.08726013    -0.16800
C1172       C  0.55160889  0.31481558  0.89582469    -0.16800
H1173       H  0.88554237  0.29685239  0.94650081     0.16100
H1174       H  0.88695631  0.29884560  0.04960326     0.16100
H1175       H  0.60434091  0.34456042  0.94112696     0.16100
H1176       H  0.60770552  0.33724727  0.04409436     0.16100
H1177       H  0.97143961  0.30875057  0.79484169     0.14400
H1178       H  0.52780707  0.30018520  0.79371725     0.14400
H1179       H  0.97676202  0.30132157  0.19448108     0.14400
H1180       H  0.53429069  0.28214103  0.18817222     0.14400
H1181       H  0.97962272  0.29434267  0.99392067     0.27700
H1182       H  0.52986236  0.28596084  0.98972653     0.27700
C1183       C  0.63647259  0.15470894  0.27960009     0.88000
C1184       C  0.65567814  0.13641883  0.23921547    -0.52200
C1185       C  0.63866183  0.12463350  0.19850989     0.10900
C1186       C  0.60401681  0.13358323  0.20117370     0.21900
C1187       C  0.62021923  0.17995056  0.24767796    -0.53000
C1188       C  0.60320723  0.16913096  0.20649184     0.11000
C1189       C  0.61045621  0.13258700  0.29669930    -0.52500
C1190       C  0.59360737  0.12123452  0.25557121     0.11600
H1191       H  0.68009299  0.13137219  0.24455758     0.16100
H1192       H  0.58966785  0.12471004  0.16831863     0.01800
H1193       H  0.62124609  0.20421309  0.25788122     0.16400
H1194       H  0.60595688  0.12639169  0.33775945     0.16200
N1195       N  0.93965040  0.99882353  0.32344819    -0.35100
N1196       N  0.00110205  0.43493275  0.30169691    -0.55700
N1197       N  0.53463694  0.99808164  0.32468470    -0.35100
N1198       N  0.98774004  0.04598348  0.32091505    -0.55700
C1199       C  0.93533028  0.45616815  0.29750780     0.28500
C1200       C  0.92309729  0.02342452  0.30693974     0.28500
C1201       C  0.57111718  0.45594216  0.30064939     0.28500
C1202       C  0.55330265  0.02226993  0.31226993     0.28500
C1203       C  0.97625878  0.41598117  0.30607061     0.37100
C1204       C  0.53140548  0.41447352  0.31176872     0.37100
C1205       C  0.96252950  0.06421290  0.32374521     0.37100
C1206       C  0.51280752  0.06283485  0.30727714     0.37100
C1207       C  0.90574488  0.46515704  0.28279171    -0.20400
C1208       C  0.89483452  0.01351198  0.28719374    -0.20400
C1209       C  0.59998931  0.46623210  0.28355537    -0.20400
C1210       C  0.58349748  0.01203742  0.30636426    -0.20400
C1211       C  0.98581048  0.38571803  0.31183240    -0.21400
C1212       C  0.52230985  0.38422206  0.32089851    -0.21400
C1213       C  0.97132103  0.09443244  0.33313616    -0.21400
C1214       C  0.50288221  0.09285627  0.31459503    -0.21400
C1215       C  0.94504288  0.42525621  0.30177207    -0.16800
C1216       C  0.93209669  0.05460204  0.31218101    -0.16800
C1217       C  0.54402688  0.05340695  0.30728215    -0.16800
C1218       C  0.56245393  0.42450018  0.30550417    -0.16800
H1219       H  0.88634197  0.45051366  0.27254486     0.16100
H1220       H  0.87615763  0.02749172  0.27193595     0.16100
H1221       H  0.61947479  0.45237519  0.27115891     0.16100
H1222       H  0.60388820  0.02565824  0.29713044     0.16100
H1223       H  0.97141017  0.36533285  0.31558780     0.14400
H1224       H  0.53703288  0.36442220  0.32714043     0.14400
H1225       H  0.95651445  0.11441235  0.33609955     0.14400
H1226       H  0.51686574  0.11291580  0.32339867     0.14400
H1227       H  0.95992169  0.99955878  0.34535592     0.27700
H1228       H  0.51159594  0.99931725  0.33615768     0.27700
N1229       N  0.66825832  0.45130773  0.00635257    -0.35100
N1230       N  0.66182328  0.99149799  0.93574586    -0.55700
N1231       N  0.65846804  0.04060908  0.01507296    -0.35100
N1232       N  0.64726874  0.99694331  0.09997157    -0.55700
C1233       C  0.65992466  0.43661581  0.96141717     0.28500
C1234       C  0.65916108  0.43318434  0.04754960     0.28500
C1235       C  0.67115842  0.05573467  0.97326501     0.28500
C1236       C  0.66100652  0.05914227  0.05779243     0.28500
C1237       C  0.67215922  0.47850064  0.89592021     0.37100
C1238       C  0.66114084  0.01658204  0.90357044     0.37100
C1239       C  0.66582116  0.47072053  0.12070061     0.37100
C1240       C  0.63947845  0.02319145  0.12537936     0.37100
C1241       C  0.64641891  0.40845391  0.97436760    -0.20400
C1242       C  0.64607229  0.40624180  0.02855737    -0.20400
C1243       C  0.68278201  0.08386491  0.98995308    -0.20400
C1244       C  0.67591852  0.08624938  0.04302891    -0.20400
C1245       C  0.67852577  0.48883360  0.84493158    -0.21400
C1246       C  0.65214821  0.00804578  0.85308340    -0.21400
C1247       C  0.66790726  0.47837680  0.17377485    -0.21400
C1248       C  0.62489641  0.01614658  0.17297764    -0.21400
C1249       C  0.66351611  0.44794193  0.90896269    -0.16800
C1250       C  0.66127020  0.44054000  0.10191316    -0.16800
C1251       C  0.64659532  0.05339363  0.10736611    -0.16800
C1252       C  0.66769284  0.04718058  0.91951253    -0.16800
H1253       H  0.63702204  0.39146957  0.94768412     0.16100
H1254       H  0.63624233  0.38736513  0.05134446     0.16100
H1255       H  0.69353846  0.10161354  0.96569607     0.16100
H1256       H  0.68069187  0.10616952  0.06708001     0.16100
H1257       H  0.67971355  0.47523986  0.80919789     0.14400
H1258       H  0.64902114  0.02283176  0.81885681     0.14400
H1259       H  0.66870725  0.46284447  0.20745996     0.14400
H1260       H  0.61646921  0.03207264  0.20243086     0.14400
H1261       H  0.68083445  0.47171899  0.00879571     0.27700
H1262       H  0.64402866  0.02148733  0.01259474     0.27700
N1263       N  0.94285332  0.21983023  0.01587385    -0.35100
N1264       N  0.98811948  0.20985089  0.09882308    -0.55700
N1265       N  0.54142612  0.21547796  0.00420479    -0.35100
N1266       N  0.99287654  0.21290743  0.93817733    -0.55700
C1267       C  0.92364859  0.21453324  0.05754363     0.28500
C1268       C  0.92601249  0.21536763  0.97154101     0.28500
C1269       C  0.55960761  0.21414237  0.04747422     0.28500
C1270       C  0.55990982  0.22205749  0.96222727     0.28500
C1271       C  0.96298837  0.21546975  0.12934904     0.37100
C1272       C  0.51932963  0.20147564  0.11511236     0.37100
C1273       C  0.96899043  0.21807182  0.90486024     0.37100
C1274       C  0.52025688  0.21762671  0.89129219     0.37100
C1275       C  0.89388367  0.20897934  0.03942370    -0.20400
C1276       C  0.89535163  0.20955701  0.98529783    -0.20400
C1277       C  0.58991737  0.22110365  0.03332234    -0.20400
C1278       C  0.59009155  0.22627112  0.97946054    -0.20400
C1279       C  0.97133505  0.21652060  0.18220404    -0.21400
C1280       C  0.50912201  0.18759997  0.16168236    -0.21400
C1281       C  0.97973735  0.22042715  0.85317903    -0.21400
C1282       C  0.51106985  0.20868852  0.84117524    -0.21400
C1283       C  0.93219289  0.21325945  0.11151834    -0.16800
C1284       C  0.93741590  0.21525347  0.91889043    -0.16800
C1285       C  0.55139779  0.21836199  0.90861427    -0.16800
C1286       C  0.55046511  0.20169940  0.09690450    -0.16800
H1287       H  0.87325101  0.20428963  0.06268901     0.16100
H1288       H  0.87600529  0.20546886  0.95914352     0.16100
H1289       H  0.61003434  0.22079097  0.05873972     0.16100
H1290       H  0.61043369  0.23051408  0.95520165     0.16100
H1291       H  0.95618419  0.21933655  0.21609478     0.14400
H1292       H  0.52265736  0.17524906  0.19074946     0.14400
H1293       H  0.96616378  0.22345997  0.81762193     0.14400
H1294       H  0.52570441  0.20213894  0.80822988     0.14400
H1295       H  0.96586214  0.22676286  0.01752646     0.27700
H1296       H  0.51931311  0.20630142  0.00214554     0.27700
C1297       C  0.83715591  0.14857493  0.24968684     0.88000
C1298       C  0.85857686  0.17085180  0.21898794    -0.52200
C1299       C  0.87764141  0.15648128  0.18367167     0.10900
C1300       C  0.87340093  0.12136947  0.18236314     0.21900
C1301       C  0.81966175  0.13029211  0.20695679    -0.53000
C1302       C  0.83889013  0.11586534  0.17182732     0.11000
C1303       C  0.85886966  0.12475284  0.27511776    -0.52500
C1304       C  0.87807782  0.11063267  0.23967881     0.11600
H1305       H  0.85833167  0.19558987  0.22481388     0.16100
H1306       H  0.88888518  0.10963914  0.15361097     0.01800
H1307       H  0.79459495  0.12845611  0.20531118     0.16400
H1308       H  0.85838080  0.11940738  0.31712169     0.16200
N1309       N  0.80658763  0.03947644  0.00015373    -0.35100
N1310       N  0.80685094  0.49851961  0.93544700    -0.55700
N1311       N  0.81132556  0.44908493  0.01310043    -0.35100
N1312       N  0.80249285  0.49200771  0.10103091    -0.55700
C1313       C  0.80187661  0.05643105  0.95579087     0.28500
C1314       C  0.79779188  0.05683219  0.04184003     0.28500
C1315       C  0.81042763  0.43285339  0.96750867     0.28500
C1316       C  0.80581523  0.42915879  0.05351131     0.28500
C1317       C  0.82086484  0.01857010  0.88936890     0.37100
C1318       C  0.81951756  0.47633794  0.90482558     0.37100
C1319       C  0.80440685  0.01810056  0.11381826     0.37100
C1320       C  0.81019573  0.46619290  0.12830378     0.37100
C1321       C  0.78945663  0.08473548  0.96947874    -0.20400
C1322       C  0.78702937  0.08503435  0.02384564    -0.20400
C1323       C  0.80389657  0.40222250  0.97914969    -0.20400
C1324       C  0.80052058  0.40000248  0.03325555    -0.20400
C1325       C  0.83724945  0.01132302  0.84375003    -0.21400
C1326       C  0.83126161  0.48921764  0.85841719    -0.21400
C1327       C  0.81066934  0.00926740  0.16553367    -0.21400
C1328       C  0.81951904  0.47382058  0.17903135    -0.21400
C1329       C  0.81221804  0.04866514  0.90430455    -0.16800
C1330       C  0.80205646  0.04894927  0.09575046    -0.16800
C1331       C  0.80942647  0.43582214  0.10804563    -0.16800
C1332       C  0.81972833  0.44448631  0.91733866    -0.16800
H1333       H  0.78380093  0.10364275  0.94312824     0.16100
H1334       H  0.77892052  0.10408192  0.04755146     0.16100
H1335       H  0.80252814  0.38309892  0.95212000     0.16100
H1336       H  0.79607672  0.37896263  0.05530876     0.16100
H1337       H  0.84530741  0.02697609  0.81303130     0.14400
H1338       H  0.84254902  0.47753089  0.82592469     0.14400
H1339       H  0.81484355  0.02400493  0.19916815     0.14400
H1340       H  0.82742614  0.45839463  0.20993962     0.14400
H1341       H  0.81949540  0.01942543  0.00255670     0.27700
H1342       H  0.82024331  0.47118753  0.01693694     0.27700
C1343       C  0.80583730  0.07423878  0.13495850    -0.14900
C1344       C  0.82885350  0.09498453  0.12899133    -0.30100
H1345       H  0.79290209  0.07314079  0.17193962     0.14100
H1346       H  0.84377782  0.09359517  0.09429882     0.14700
C1347       C  0.90054141  0.17184222  0.14844199    -0.14900
C1348       C  0.90864753  0.20179764  0.15010845    -0.30100
H1349       H  0.91166838  0.15732908  0.11907326     0.14100
H1350       H  0.89950902  0.21722574  0.17989071     0.14700
C1351       C  0.90873763  0.07877408  0.30254491    -0.14900
C1352       C  0.90066523  0.08625780  0.25289987    -0.30100
H1353       H  0.89997223  0.09134278  0.33634941     0.14100
H1354       H  0.91142029  0.07409024  0.22017035     0.14700
C1355       C  0.57401121  0.18338268  0.12609220    -0.14900
C1356       C  0.58279724  0.18989499  0.17552844    -0.30100
H1357       H  0.58435681  0.16404957  0.10556312     0.14100
H1358       H  0.57428161  0.21073317  0.19417928     0.14700
C1359       C  0.65198268  0.10116023  0.16212856    -0.14900
C1360       C  0.63422688  0.07971468  0.13869749    -0.30100
H1361       H  0.67702125  0.09958377  0.15876613     0.14100
H1362       H  0.60951350  0.07924542  0.14655964     0.14700
C1363       C  0.56856119  0.07733649  0.30201434    -0.14900
C1364       C  0.56875386  0.09792707  0.26189787    -0.30100
H1365       H  0.58773122  0.07653427  0.32964055     0.14100
H1366       H  0.55110717  0.09663917  0.23145352     0.14700
C1367       C  0.57663318  0.31508796  0.12981747    -0.14900
C1368       C  0.60539132  0.30544583  0.14003763    -0.30100
H1369       H  0.56655464  0.33326258  0.15369958     0.14100
H1370       H  0.61482486  0.28559816  0.11963319     0.14700
C1371       C  0.66956072  0.39148867  0.15047764    -0.14900
C1372       C  0.65227534  0.41653940  0.14123447    -0.30100
H1373       H  0.69227457  0.38933362  0.13219221     0.14100
H1374       H  0.63072404  0.41982582  0.16288782     0.14700
C1375       C  0.58742539  0.38179663  0.25814699    -0.14900
C1376       C  0.58723966  0.40090885  0.29975460    -0.30100
H1377       H  0.56898662  0.38355910  0.22914704     0.14100
H1378       H  0.60711102  0.40188852  0.32592227     0.14700
C1379       C  0.92863418  0.31432925  0.13093507    -0.14900
C1380       C  0.90170624  0.30289342  0.14955015    -0.30100
H1381       H  0.93714015  0.33617957  0.14579934     0.14100
H1382       H  0.89452657  0.27969236  0.13916188     0.14700
C1383       C  0.83810717  0.38996500  0.13900871    -0.14900
C1384       C  0.81454019  0.40978443  0.14596528    -0.30100
H1385       H  0.85309594  0.39285515  0.10461128     0.14100
H1386       H  0.80126832  0.40928347  0.18260886     0.14700
C1387       C  0.91706439  0.38609327  0.25199284    -0.14900
C1388       C  0.92075894  0.40129069  0.29754575    -0.30100
H1389       H  0.93330048  0.39036915  0.21969392     0.14100
H1390       H  0.90362584  0.39966697  0.32901283     0.14700
C1391       C  0.57205266  0.08184902  0.72042000    -0.14900
C1392       C  0.57278388  0.09950562  0.76384678    -0.30100
H1393       H  0.59120414  0.08233643  0.69239072     0.14100
H1394       H  0.55482393  0.09638253  0.79375549     0.14700
C1395       C  0.66703059  0.07220467  0.87855741    -0.14900
C1396       C  0.64735290  0.09587778  0.88444168    -0.30100
H1397       H  0.67920326  0.06914061  0.84122161     0.14100
H1398       H  0.63278654  0.09654980  0.91965758     0.14700
C1399       C  0.58683552  0.17934904  0.87599611    -0.14900
C1400       C  0.57584594  0.20813398  0.87080310    -0.30100
H1401       H  0.57847308  0.16540040  0.90908790     0.14100
H1402       H  0.58124051  0.22201328  0.83600855     0.14700
C1403       C  0.56929435  0.33255685  0.85541706    -0.14900
C1404       C  0.59614196  0.32243771  0.83584399    -0.30100
H1405       H  0.55982243  0.35439517  0.84203210     0.14100
H1406       H  0.60426392  0.29955711  0.84648943     0.14700
C1407       C  0.58639463  0.41199573  0.73743203    -0.14900
C1408       C  0.58597699  0.43069530  0.69480555    -0.30100
H1409       H  0.56888206  0.41483230  0.76805862     0.14100
H1410       H  0.60471445  0.43029128  0.66599756     0.14700
C1411       C  0.66661833  0.40203546  0.85116021    -0.14900
C1412       C  0.65259216  0.42828650  0.86492458    -0.30100
H1413       H  0.68817364  0.39529818  0.86991069     0.14100
H1414       H  0.63256239  0.43619004  0.84282000     0.14700
C1415       C  0.81785166  0.07408655  0.86580075    -0.14900
C1416       C  0.84147528  0.09365147  0.87389997    -0.30100
H1417       H  0.80523321  0.07438054  0.82870600     0.14100
H1418       H  0.85560004  0.09073186  0.90908627     0.14700
C1419       C  0.92199364  0.10179605  0.75875025    -0.14900
C1420       C  0.92372107  0.08446876  0.71510434    -0.30100
H1421       H  0.93983093  0.09934467  0.78870328     0.14100
H1422       H  0.90466377  0.08412772  0.68718637     0.14700
C1423       C  0.90659946  0.17546000  0.87723218    -0.14900
C1424       C  0.91584235  0.20505521  0.87687744    -0.30100
H1425       H  0.91525107  0.16024395  0.90814975     0.14100
H1426       H  0.90973985  0.22071372  0.84494887     0.14700
C1427       C  0.82274821  0.39949471  0.85527383    -0.14900
C1428       C  0.83595385  0.42362402  0.87983504    -0.30100
H1429       H  0.79816619  0.39495970  0.86066717     0.14100
H1430       H  0.85960352  0.43009341  0.87022902     0.14700
C1431       C  0.90589114  0.33152931  0.86142411    -0.14900
C1432       C  0.92152754  0.30487201  0.85844968    -0.30100
H1433       H  0.91072772  0.34675423  0.89439936     0.14100
H1434       H  0.91928552  0.29022461  0.82401105     0.14700
C1435       C  0.90777030  0.41487357  0.75571974    -0.14900
C1436       C  0.92079004  0.42315902  0.70929290    -0.30100
H1437       H  0.91354546  0.42799274  0.79087199     0.14100
H1438       H  0.91719122  0.40970581  0.67382810     0.14700
C1439       C  0.83684796  0.32849491  0.69762789    -0.14900
C1440       C  0.81696944  0.30478588  0.70419969    -0.30100
H1441       H  0.84319441  0.33558514  0.65765058     0.14100
H1442       H  0.81027048  0.29772678  0.74402569     0.14700
C1443       C  0.81498037  0.15870661  0.68704845    -0.14900
C1444       C  0.82997935  0.17265191  0.72661190    -0.30100
H1445       H  0.81818816  0.13420267  0.68056683     0.14100
H1446       H  0.82829514  0.19753107  0.73053998     0.14700
C1447       C  0.68973030  0.31367228  0.69569803    -0.14900
C1448       C  0.67080950  0.33747944  0.68590651    -0.30100
H1449       H  0.69314667  0.30579744  0.73620476     0.14100
H1450       H  0.66703780  0.34517066  0.64540759     0.14700
C1451       C  0.83580702  0.30503504  0.34191709    -0.14900
C1452       C  0.82442543  0.31837026  0.29785111    -0.30100
H1453       H  0.86057199  0.30533989  0.34927244     0.14100
H1454       H  0.79948739  0.31960276  0.29247641     0.14700
C1455       C  0.66809695  0.16979336  0.73039622    -0.14900
C1456       C  0.66813383  0.16777947  0.67710468    -0.30100
H1457       H  0.68526624  0.18443108  0.74913395     0.14100
H1458       H  0.65150478  0.15318671  0.65754712     0.14700
C1459       C  0.69036847  0.32281737  0.33758820    -0.14900
C1460       C  0.67836184  0.30993399  0.29404084    -0.30100
H1461       H  0.68580716  0.34689981  0.34595956     0.14100
H1462       H  0.68129183  0.28532646  0.28807568     0.14700
C1463       C  0.82835784  0.17758111  0.33286481    -0.14900
C1464       C  0.81646757  0.16458792  0.28925852    -0.30100
H1465       H  0.85305449  0.17592194  0.34047745     0.14100
H1466       H  0.79154362  0.16444801  0.28336793     0.14700
C1467       C  0.67851379  0.18603013  0.32014489    -0.14900
C1468       C  0.65454901  0.16654841  0.32611603    -0.30100
H1469       H  0.68557754  0.19327898  0.28057934     0.14100
H1470       H  0.64759276  0.15912559  0.36563609     0.14700
O1471       O  0.69439691  0.68601551  0.42200878    -0.73800
O1472       O  0.72303388  0.71379731  0.36213251    -0.52700
C1473       C  0.70239781  0.69362209  0.37447557     0.79900
O1474       O  0.69690607  0.80518813  0.60613783    -0.58400
O1475       O  0.72212829  0.77548569  0.66698609    -0.51400
C1476       C  0.70294345  0.79684691  0.65403297     0.72000
O1477       O  0.69288358  0.80429275  0.42706984    -0.72900
O1478       O  0.72127432  0.77935888  0.36437991    -0.53500
C1479       C  0.69966037  0.79781420  0.37855663     0.78000
O1480       O  0.69608423  0.67884193  0.60051683    -0.58100
O1481       O  0.71997116  0.70725082  0.66433492    -0.51200
C1482       C  0.70143188  0.68581111  0.64912320     0.74500
Zr1483     Zr  0.70894779  0.69886115  0.51232281     2.54700
O1484       O  0.65277229  0.70347060  0.51533898    -0.78700
O1485       O  0.70651755  0.64287947  0.50686129    -0.92100
Zr1486     Zr  0.71098507  0.79048935  0.51625914     2.64700
O1487       O  0.65465466  0.79093982  0.52183743    -0.97000
O1488       O  0.71334160  0.84653989  0.51442260    -0.79100
O1489       O  0.70929750  0.74577265  0.46324662    -0.82500
O1490       O  0.70884227  0.74358427  0.56557244    -2.17200
O1491       O  0.81360529  0.67828216  0.59990986    -0.65800
O1492       O  0.78868406  0.70591638  0.66387286    -0.50400
C1493       C  0.80768982  0.68495914  0.64863007     0.72900
O1494       O  0.82392809  0.79914564  0.42896938    -0.58700
O1495       O  0.79147906  0.78054891  0.36559023    -0.50700
C1496       C  0.81547594  0.79577570  0.38053390     0.74700
O1497       O  0.81950852  0.79909042  0.60766178    -0.70100
O1498       O  0.78989514  0.77280567  0.66806682    -0.48800
C1499       C  0.81172327  0.79172288  0.65547195     0.76100
O1500       O  0.81499327  0.68366313  0.41813157    -0.65500
O1501       O  0.78815818  0.71406429  0.36032886    -0.52700
C1502       C  0.80744897  0.69259889  0.37082125     0.74500
Zr1503     Zr  0.80083853  0.69668784  0.51067836     2.77500
O1504       O  0.85711728  0.69785637  0.51586824    -0.96200
O1505       O  0.79947598  0.64074582  0.50478310    -0.77000
Zr1506     Zr  0.80302876  0.78814808  0.51725111     2.70100
O1507       O  0.85920613  0.79224227  0.52165169    -0.78300
O1508       O  0.79852454  0.84402388  0.51774017    -0.97400
Zr1509     Zr  0.75620038  0.74666510  0.41356891     2.21500
Zr1510     Zr  0.75526407  0.74122753  0.61618480     2.11100
O1511       O  0.80208738  0.74104412  0.56519679    -2.46100
O1512       O  0.80300003  0.74383252  0.46279751    -0.78100
O1513       O  0.75482936  0.69596012  0.56307497    -0.70300
O1514       O  0.75739326  0.79212538  0.46549937    -2.31200
O1515       O  0.75485287  0.69877131  0.46053386    -2.27400
O1516       O  0.75674219  0.78874823  0.56832484    -0.72000
H1517       H  0.69077792  0.74337349  0.58831070     0.80000
H1518       H  0.75804541  0.81034680  0.44333037     0.81000
H1519       H  0.81999095  0.73994869  0.58787003     0.83300
H1520       H  0.75446038  0.68154260  0.43659451     0.80900
H1521       H  0.73541426  0.85150825  0.50770792     0.43900
H1522       H  0.81810790  0.85130535  0.53372047     0.42900
H1523       H  0.86649106  0.77067370  0.51985823     0.42600
H1524       H  0.86339541  0.67609869  0.51159618     0.40500
H1525       H  0.77814043  0.63502989  0.51570383     0.43600
H1526       H  0.71931873  0.63760164  0.47559191     0.38400
H1527       H  0.64498706  0.68393924  0.50023858     0.44500
H1528       H  0.64833196  0.80951777  0.50171837     0.40900
H1529       H  0.86393694  0.70817462  0.48269923     0.45900
H1530       H  0.68499076  0.63825065  0.49603000     0.44600
H1531       H  0.64796181  0.77343642  0.49964103     0.44700
H1532       H  0.80012001  0.85028505  0.48004737     0.45100
C1533       C  0.86722759  0.84393775  0.73469021     0.88000
C1534       C  0.88376175  0.82484445  0.77780850    -0.52200
C1535       C  0.89704428  0.84259555  0.81630739     0.10900
C1536       C  0.89196615  0.87730166  0.80843595     0.21900
C1537       C  0.84385321  0.86422112  0.76430870    -0.53000
C1538       C  0.85668024  0.88167570  0.80313607     0.11000
C1539       C  0.89198932  0.86664679  0.71413083    -0.52500
C1540       C  0.90487712  0.88409679  0.75303649     0.11600
H1541       H  0.88522450  0.79990271  0.77702339     0.16100
H1542       H  0.90301644  0.89173881  0.83919519     0.01800
H1543       H  0.81939719  0.86521717  0.75451889     0.16400
H1544       H  0.89891145  0.86846256  0.67281868     0.16200
C1545       C  0.84472338  0.65776949  0.78255583     0.88000
C1546       C  0.82515514  0.63744587  0.82051219    -0.52200
C1547       C  0.84217420  0.62336114  0.85926196     0.10900
C1548       C  0.87680809  0.63075251  0.85652666     0.21900
C1549       C  0.86230517  0.68032119  0.81895600    -0.53000
C1550       C  0.87903494  0.66595172  0.85779002     0.11000
C1551       C  0.87022994  0.63615373  0.76157292    -0.52500
C1552       C  0.88664081  0.62174340  0.80044212     0.11600
H1553       H  0.80026364  0.63452719  0.81691308     0.16100
H1554       H  0.89054642  0.61907562  0.88786202     0.01800
H1555       H  0.86125690  0.70520044  0.81465094     0.16400
H1556       H  0.87599997  0.63308558  0.72024464     0.16200
C1557       C  0.64337576  0.84639051  0.73094993     0.88000
C1558       C  0.66110575  0.86658773  0.77062319    -0.52200
C1559       C  0.64269199  0.87929688  0.80888116     0.10900
C1560       C  0.60827720  0.87002879  0.80393757     0.21900
C1561       C  0.62586114  0.82219092  0.76462604    -0.53000
C1562       C  0.60764631  0.83457778  0.80319902     0.11000
C1563       C  0.61788270  0.86763054  0.70917561    -0.52500
C1564       C  0.59946909  0.87985305  0.74770021     0.11600
H1565       H  0.68575087  0.87142016  0.76732661     0.16100
H1566       H  0.59249898  0.88025667  0.83361736     0.01800
H1567       H  0.62729536  0.79754949  0.75786042     0.16400
H1568       H  0.61452017  0.87224673  0.66728003     0.16200
C1569       C  0.64687992  0.66369928  0.76495947     0.88000
C1570       C  0.62830472  0.68422739  0.80344383    -0.52200
C1571       C  0.60641767  0.66834795  0.83226230     0.10900
C1572       C  0.60543939  0.63380451  0.82010566     0.21900
C1573       C  0.66050814  0.63793831  0.80017434    -0.53000
C1574       C  0.63848857  0.62223860  0.82912654     0.11000
C1575       C  0.62214849  0.64751040  0.73124724    -0.52500
C1576       C  0.60085834  0.63152390  0.76040805     0.11600
H1577       H  0.63219435  0.70882413  0.80714697     0.16100
H1578       H  0.58764610  0.62082984  0.84328154     0.01800
H1579       H  0.68505485  0.63279509  0.80152422     0.16400
H1580       H  0.62200210  0.64788549  0.68823272     0.16200
N1581       N  0.00966700  0.96068082  0.70996228    -0.35100
N1582       N  0.55406520  0.51075751  0.68169043    -0.55700
N1583       N  0.99497826  0.55294551  0.73931944    -0.35100
N1584       N  0.94880022  0.50537502  0.71857891    -0.55700
C1585       C  0.51711681  0.93677895  0.69471617     0.28500
C1586       C  0.98590653  0.94265721  0.69416889     0.28500
C1587       C  0.53073107  0.57478459  0.67439862     0.28500
C1588       C  0.96928315  0.57056079  0.73597038     0.28500
C1589       C  0.55833502  0.97683682  0.70599001     0.37100
C1590       C  0.57183729  0.53592155  0.69040131     0.37100
C1591       C  0.94272098  0.98024737  0.70402807     0.37100
C1592       C  0.92946699  0.52860690  0.73138267     0.37100
C1593       C  0.50741079  0.90776894  0.67896595    -0.20400
C1594       C  0.99711206  0.91427705  0.67828136    -0.20400
C1595       C  0.52130079  0.60380863  0.65791384    -0.20400
C1596       C  0.97780381  0.60139394  0.73556279    -0.24100
C1597       C  0.58860122  0.98576199  0.71629120    -0.21400
C1598       C  0.60136945  0.52714839  0.70556140    -0.21400
C1599       C  0.91192330  0.98741761  0.71352695    -0.21400
C1600       C  0.89956778  0.51741564  0.73821694    -0.21400
C1601       C  0.54853111  0.94601661  0.69891893    -0.16800
C1602       C  0.95418189  0.95006667  0.69813890    -0.16800
C1603       C  0.93825404  0.55978200  0.73748396    -0.16800
C1604       C  0.56165846  0.56668276  0.68529537    -0.16800
H1605       H  0.52174317  0.88896171  0.66545838     0.16100
H1606       H  0.98382259  0.89477022  0.66434117     0.16100
H1607       H  0.53591375  0.62317305  0.64691204     0.16100
H1608       H  0.96277262  0.62126153  0.73389230     0.16100
H1609       H  0.60869303  0.97115534  0.72072774     0.14400
H1610       H  0.62072142  0.54190628  0.71552229     0.14400
H1611       H  0.89260204  0.97162575  0.71816512     0.14400
H1612       H  0.87898989  0.53025133  0.74856585     0.14400
H1613       H  0.00755075  0.98137314  0.72991052     0.27700
H1614       H  0.99532676  0.52950020  0.74671376     0.27700
C1615       C  0.84500707  0.84078517  0.25738427     0.88000
C1616       C  0.82756188  0.85830939  0.21345114    -0.52200
C1617       C  0.84675212  0.87482840  0.18050977     0.10900
C1618       C  0.88114469  0.87204286  0.19420753     0.21900
C1619       C  0.86902719  0.82081614  0.22795341    -0.53000
C1620       C  0.88809290  0.83750319  0.19509484     0.11000
C1621       C  0.86410719  0.86596837  0.28533237    -0.52500
C1622       C  0.88320253  0.88217761  0.25191218     0.11600
H1623       H  0.80253783  0.85803327  0.20933827     0.16100
H1624       H  0.89656898  0.88544706  0.16710552     0.01800
H1625       H  0.87132783  0.79614360  0.23400720     0.16400
H1626       H  0.86231948  0.87040607  0.32744641     0.16200
C1627       C  0.63690608  0.84320860  0.30063077     0.88000
C1628       C  0.61082222  0.86387570  0.32171894    -0.52200
C1629       C  0.59237552  0.87577026  0.28296785     0.10900
C1630       C  0.60156863  0.86584604  0.22698701     0.21900
C1631       C  0.62017877  0.81849750  0.26773936    -0.53000
C1632       C  0.60192114  0.83035969  0.22868874     0.11000
C1633       C  0.65435701  0.86357839  0.25990795    -0.52500
C1634       C  0.63570533  0.87589076  0.22162623     0.11600
H1635       H  0.60738436  0.86865289  0.36347725     0.16100
H1636       H  0.58595771  0.87527893  0.19624404     0.01800
H1637       H  0.62242744  0.79391464  0.27494589     0.16400
H1638       H  0.67895362  0.86869970  0.26238109     0.16200
N1639       N  0.95380926  0.79055522  0.00734318    -0.35100
N1640       N  0.00501393  0.80030863  0.93375943    -0.55700
N1641       N  0.54317208  0.80457496  0.01393743    -0.35100
N1642       N  0.99756590  0.79817055  0.09357455    -0.55700
C1643       C  0.93796224  0.79685777  0.96241650     0.28500
C1644       C  0.93405387  0.79476264  0.04848512     0.28500
C1645       C  0.56184630  0.80227100  0.97099796     0.28500
C1646       C  0.56086614  0.79952313  0.05714622     0.28500
C1647       C  0.98219330  0.79423082  0.89870126     0.37100
C1648       C  0.52296696  0.81299417  0.90100635     0.37100
C1649       C  0.97209899  0.78964781  0.12159384     0.37100
C1650       C  0.52054304  0.80609693  0.12652098     0.37100
C1651       C  0.90741073  0.80356105  0.97523226    -0.20400
C1652       C  0.90503956  0.80252282  0.02941842    -0.20400
C1653       C  0.59154217  0.79468023  0.98699670    -0.20400
C1654       C  0.59091993  0.79294919  0.04143624    -0.20400
C1655       C  0.99457974  0.79163355  0.84818933    -0.21400
C1656       C  0.51371746  0.82509996  0.85264417    -0.21400
C1657       C  0.97984649  0.78407922  0.17393075    -0.21400
C1658       C  0.50997093  0.81680169  0.17496178    -0.21400
C1659       C  0.95015318  0.79638679  0.91014607    -0.16800
C1660       C  0.94141799  0.79198311  0.10281824    -0.16800
C1661       C  0.55193156  0.80611146  0.10971458    -0.16800
C1662       C  0.55395411  0.81146967  0.91904855    -0.16800
H1663       H  0.88859927  0.80882276  0.94858398     0.16100
H1664       H  0.88425524  0.80712501  0.05211937     0.16100
H1665       H  0.61184238  0.79212356  0.96209737     0.16100
H1666       H  0.61065597  0.78890294  0.06678310     0.16100
H1667       H  0.98218381  0.78797082  0.81161745     0.14400
H1668       H  0.52808937  0.83511142  0.82176514     0.14400
H1669       H  0.96432687  0.77788313  0.20612108     0.14400
H1670       H  0.52336590  0.82635071  0.20701526     0.14400
H1671       H  0.97620388  0.78195826  0.00969028     0.27700
H1672       H  0.52146083  0.81469928  0.01430619     0.27700
C1673       C  0.64707715  0.64422051  0.29211895     0.88000
C1674       C  0.66679148  0.62829561  0.24962394    -0.52200
C1675       C  0.64974843  0.61724947  0.20858400     0.10900
C1676       C  0.61481285  0.62391604  0.21305716     0.21900
C1677       C  0.62940387  0.66949970  0.26260880    -0.53000
C1678       C  0.61265051  0.65914724  0.22094593     0.11000
C1679       C  0.62244649  0.62025078  0.30820711    -0.52500
C1680       C  0.60567013  0.60939876  0.26650807     0.11600
H1681       H  0.69160310  0.62477064  0.25298060     0.16100
H1682       H  0.60133981  0.61492429  0.17918043     0.01800
H1683       H  0.63047958  0.69369204  0.27330200     0.16400
H1684       H  0.61890856  0.61239139  0.34871330     0.16200
N1685       N  0.95284937  0.48134788  0.30718190    -0.35100
N1686       N  0.98704455  0.95178443  0.33089160    -0.55700
N1687       N  0.55310199  0.48049532  0.31234977    -0.35100
N1688       N  0.00039620  0.52964531  0.30413945    -0.55700
C1689       C  0.92261149  0.97335977  0.31323316     0.28500
C1690       C  0.93501658  0.50621204  0.29736392     0.28500
C1691       C  0.55241739  0.97246503  0.32479235     0.28500
C1692       C  0.57002919  0.50621067  0.30198224     0.28500
C1693       C  0.96169489  0.93386509  0.33809483     0.37100
C1694       C  0.51060264  0.93298226  0.33805915     0.37100
C1695       C  0.97490648  0.54715503  0.31090485     0.37100
C1696       C  0.52889030  0.54526826  0.31728931     0.37100
C1697       C  0.89453962  0.98192105  0.29112921    -0.20400
C1698       C  0.90556698  0.49674984  0.28262721    -0.20400
C1699       C  0.58294165  0.98068234  0.31417519    -0.20400
C1700       C  0.59929878  0.49791398  0.28441657    -0.20400
C1701       C  0.97036870  0.90426468  0.35245489    -0.21400
C1702       C  0.50033664  0.90363157  0.35156017    -0.21400
C1703       C  0.98324230  0.57697498  0.32406102    -0.21400
C1704       C  0.51896774  0.57421219  0.33270561    -0.21400
C1705       C  0.93125260  0.94271615  0.32516070    -0.16800
C1706       C  0.94418438  0.53722861  0.30263484    -0.16800
C1707       C  0.56013110  0.53694646  0.30932902    -0.16800
C1708       C  0.54206370  0.94182277  0.33377785    -0.16800
H1709       H  0.87564225  0.96703979  0.27935613     0.16100
H1710       H  0.88598155  0.51108904  0.27248897     0.16100
H1711       H  0.60282800  0.96564783  0.31179373     0.16100
H1712       H  0.61815455  0.51310900  0.27296939     0.16100
H1713       H  0.95539361  0.88459028  0.35962301     0.14400
H1714       H  0.51421772  0.88409310  0.36346995     0.14400
H1715       H  0.96807196  0.59625690  0.33165495     0.14400
H1716       H  0.53309688  0.59377621  0.34374476     0.14400
H1717       H  0.97469768  0.48155137  0.32397121     0.27700
H1718       H  0.53157082  0.47978793  0.33087888     0.27700
N1719       N  0.64734192  0.94794428  0.02114636    -0.35100
N1720       N  0.67146494  0.50254137  0.92963794    -0.55700
N1721       N  0.67068585  0.54731284  0.01417887    -0.35100
N1722       N  0.66425112  0.49648660  0.09047881    -0.55700
C1723       C  0.65053075  0.92847556  0.97988919     0.28500
C1724       C  0.64666231  0.93071479  0.06611833     0.28500
C1725       C  0.66738382  0.56631246  0.97182029     0.28500
C1726       C  0.66098108  0.56294831  0.05737078     0.28500
C1727       C  0.65238567  0.96722977  0.90634349     0.37100
C1728       C  0.67703242  0.52816163  0.90014713     0.37100
C1729       C  0.63664446  0.97328917  0.13026888     0.37100
C1730       C  0.66473497  0.52045766  0.12429495     0.37100
C1731       C  0.65220834  0.89846585  0.99876398    -0.20400
C1732       C  0.64983378  0.89984975  0.05300422    -0.20400
C1733       C  0.65688340  0.59479122  0.98883368    -0.20400
C1734       C  0.65235142  0.59249839  0.04245685    -0.20400
C1735       C  0.64647129  0.97685950  0.85489275    -0.21400
C1736       C  0.68173486  0.52023792  0.84763250    -0.21400
C1737       C  0.62332488  0.98458891  0.17629154    -0.21400
C1738       C  0.66710738  0.50989438  0.17605933    -0.21400
C1739       C  0.64858714  0.93662664  0.92561766    -0.16800
C1740       C  0.63897841  0.94162476  0.11742671    -0.16800
C1741       C  0.65970670  0.55149135  0.10996627    -0.16800
C1742       C  0.67333817  0.55871004  0.91818198    -0.16800
H1743       H  0.65393790  0.87759806  0.97571168     0.16100
H1744       H  0.64906144  0.88007605  0.07926022     0.16100
H1745       H  0.65230564  0.61515704  0.96529700     0.16100
H1746       H  0.64346234  0.61066244  0.06733615     0.16100
H1747       H  0.63818331  0.96310994  0.82226627     0.14400
H1748       H  0.68556261  0.53559697  0.81426650     0.14400
H1749       H  0.61310983  0.97152579  0.20861243     0.14400
H1750       H  0.66739962  0.52349131  0.21183446     0.14400
H1751       H  0.64138143  0.97094251  0.01797838     0.27700
H1752       H  0.68086299  0.52569178  0.01407167     0.27700
N1753       N  0.94999003  0.71150906  0.02505181    -0.35100
N1754       N  0.99885708  0.70492046  0.10475464    -0.55700
N1755       N  0.55275683  0.71409770  0.02875122    -0.35100
N1756       N  0.99541449  0.72016007  0.93949845    -0.55700
C1757       C  0.93278345  0.71237460  0.06999283     0.28500
C1758       C  0.93104226  0.71821514  0.98412335     0.28500
C1759       C  0.56745826  0.69916165  0.06858974     0.28500
C1760       C  0.57029003  0.71063306  0.98453592     0.28500
C1761       C  0.97379092  0.69662090  0.13405737     0.37100
C1762       C  0.52732715  0.70512942  0.13931533     0.37100
C1763       C  0.96960648  0.71623792  0.90994235     0.37100
C1764       C  0.53121337  0.72707937  0.91753423     0.37100
C1765       C  0.90261416  0.72037794  0.05755446    -0.20400
C1766       C  0.90148957  0.72394638  0.00336043    -0.20400
C1767       C  0.59559018  0.68804338  0.05033182    -0.20400
C1768       C  0.59756857  0.69561769  0.99757510    -0.20400
C1769       C  0.98288476  0.67986117  0.17816291    -0.21400
C1770       C  0.51869195  0.70569021  0.19221033    -0.21400
C1771       C  0.97779270  0.71123399  0.85751750    -0.21400
C1772       C  0.52237280  0.73446904  0.86632866    -0.21400
C1773       C  0.94255648  0.70236741  0.12071697    -0.16800
C1774       C  0.93878106  0.71571228  0.92967353    -0.16800
C1775       C  0.56165322  0.71860700  0.93207000    -0.16800
C1776       C  0.55608090  0.69442940  0.12068077    -0.16800
H1777       H  0.88317308  0.72233118  0.08453949     0.16100
H1778       H  0.88105566  0.72935550  0.98050558     0.16100
H1779       H  0.61275039  0.67526320  0.07244565     0.16100
H1780       H  0.61644152  0.68946098  0.97138879     0.16100
H1781       H  0.96825061  0.66954800  0.20844108     0.14400
H1782       H  0.53311037  0.70092773  0.22622059     0.14400
H1783       H  0.96256444  0.70706372  0.82440814     0.14400
H1784       H  0.53726676  0.73782679  0.83214146     0.14400
H1785       H  0.97192741  0.70225131  0.02159606     0.27700
H1786       H  0.53225914  0.72639889  0.03171588     0.27700
C1787       C  0.85563224  0.64029124  0.27744899     0.88000
C1788       C  0.87293324  0.66334047  0.24074352    -0.52200
C1789       C  0.88675013  0.64973843  0.19796332     0.10900
C1790       C  0.88246194  0.61471019  0.19655002     0.21900
C1791       C  0.83295330  0.62275624  0.24081122    -0.53000
C1792       C  0.84733582  0.60954849  0.19801617     0.11000
C1793       C  0.88001098  0.61646818  0.29252424    -0.52500
C1794       C  0.89397173  0.60289893  0.25031460     0.11600
H1795       H  0.87370091  0.68796765  0.24778493     0.16100
H1796       H  0.89412631  0.60356981  0.16235615     0.01800
H1797       H  0.80814997  0.62132933  0.24774401     0.16400
H1798       H  0.88605796  0.61127390  0.33329385     0.16200
N1799       N  0.80228539  0.54190209  0.02367872    -0.35100
N1800       N  0.81531127  0.99280904  0.91830392    -0.55700
N1801       N  0.81478777  0.94706809  0.00275760    -0.35100
N1802       N  0.80092605  0.99289225  0.08310379    -0.55700
C1803       C  0.79536867  0.56056938  0.98229016     0.28500
C1804       C  0.79587448  0.55749202  0.06863629     0.28500
C1805       C  0.81708420  0.92910778  0.95945292     0.28500
C1806       C  0.80624841  0.92861909  0.04369888     0.28500
C1807       C  0.81139319  0.52550598  0.90933767     0.37100
C1808       C  0.82918475  0.96940618  0.89233447     0.37100
C1809       C  0.80771344  0.51603716  0.13386341     0.37100
C1810       C  0.80587007  0.96813524  0.11479300     0.37100
C1811       C  0.78377243  0.58817601  0.00120938    -0.20400
C1812       C  0.78425847  0.58628910  0.05573288    -0.20400
C1813       C  0.80936992  0.89899177  0.97258510    -0.20400
C1814       C  0.80221263  0.89872328  0.02572415    -0.20400
C1815       C  0.82601864  0.52030933  0.86119690    -0.21400
C1816       C  0.84278612  0.98018484  0.84589117    -0.21400
C1817       C  0.81810742  0.50533512  0.18246149    -0.21400
C1818       C  0.81143986  0.97763271  0.16620030    -0.21400
C1819       C  0.80322734  0.55491639  0.92865200    -0.16800
C1820       C  0.80337248  0.54750886  0.12057982    -0.16800
C1821       C  0.80644229  0.93713975  0.09771609    -0.16800
C1822       C  0.82964395  0.93849375  0.91031571    -0.16800
H1823       H  0.77689449  0.60808567  0.97812855     0.16100
H1824       H  0.77764461  0.60435593  0.08281459     0.16100
H1825       H  0.80978929  0.87915522  0.94683825     0.16100
H1826       H  0.79619130  0.87852881  0.04902780     0.16100
H1827       H  0.83296833  0.53722277  0.83169786     0.14400
H1828       H  0.85569803  0.96714331  0.81690471     0.14400
H1829       H  0.82459693  0.51877290  0.21662607     0.14400
H1830       H  0.81650683  0.96335225  0.20035271     0.14400
H1831       H  0.81518103  0.52183735  0.02156075     0.27700
H1832       H  0.82374683  0.96918632  0.00581967     0.27700
C1833       C  0.80959344  0.57107672  0.16233695    -0.14900
C1834       C  0.83229963  0.59196929  0.15481487    -0.30100
H1835       H  0.79986445  0.56776454  0.20172862     0.14100
H1836       H  0.84398379  0.59263555  0.11658390     0.14700
C1837       C  0.90439672  0.66568389  0.15519078    -0.14900
C1838       C  0.91861065  0.69305942  0.16041662    -0.30100
H1839       H  0.90870788  0.65259772  0.11935451     0.14100
H1840       H  0.91723170  0.70554351  0.19743973     0.14700
C1841       C  0.91988234  0.56085655  0.29841455    -0.14900
C1842       C  0.91818362  0.57923857  0.25559816    -0.30100
H1843       H  0.90230467  0.56150225  0.32927462     0.14100
H1844       H  0.93441240  0.57622049  0.22302911     0.14700
C1845       C  0.57267945  0.67230464  0.15515419    -0.14900
C1846       C  0.59601434  0.68106126  0.18614892    -0.30100
H1847       H  0.56441554  0.64867515  0.15572141     0.14100
H1848       H  0.60255465  0.70527433  0.18702538     0.14700
C1849       C  0.66318065  0.59750371  0.16722952    -0.14900
C1850       C  0.64804241  0.57207581  0.15205805    -0.30100
H1851       H  0.68589949  0.60295302  0.15089068     0.14100
H1852       H  0.62677439  0.56522593  0.17225869     0.14700
C1853       C  0.58381283  0.56186381  0.30697385    -0.14900
C1854       C  0.58209524  0.58467946  0.27080833    -0.30100
H1855       H  0.60368117  0.56022306  0.33303679     0.14100
H1856       H  0.56374286  0.58425478  0.24152688     0.14700
C1857       C  0.57606590  0.82026687  0.14398623    -0.14900
C1858       C  0.58239583  0.81103373  0.19363657    -0.30100
H1859       H  0.58867654  0.83979400  0.12726697     0.14100
H1860       H  0.57205128  0.79000227  0.20937158     0.14700
C1861       C  0.64723870  0.89832854  0.18123041    -0.14900
C1862       C  0.62828196  0.91886052  0.15799491    -0.30100
H1863       H  0.67179118  0.89866655  0.17152963     0.14100
H1864       H  0.60430245  0.92053029  0.17058568     0.14700
C1865       C  0.56661577  0.89745961  0.29194191    -0.14900
C1866       C  0.56569805  0.91710887  0.33278325    -0.30100
H1867       H  0.54926734  0.89939579  0.26105376     0.14100
H1868       H  0.58435938  0.91778485  0.36141358     0.14700
C1869       C  0.91617954  0.79780532  0.14198909    -0.14900
C1870       C  0.91503021  0.82550865  0.16524659    -0.30100
H1871       H  0.89663304  0.78202432  0.14473686     0.14100
H1872       H  0.93362179  0.84186600  0.15701633     0.14700
C1873       C  0.83677192  0.89517796  0.13667067    -0.14900
C1874       C  0.81107055  0.91252185  0.13832756    -0.30100
H1875       H  0.85329061  0.89894276  0.10461145     0.14100
H1876       H  0.79593239  0.91162232  0.17279945     0.14700
C1877       C  0.90415277  0.90766750  0.26681031    -0.14900
C1878       C  0.90834215  0.91785365  0.31624367    -0.30100
H1879       H  0.91724656  0.91862433  0.23490079     0.14100
H1880       H  0.89668024  0.90742268  0.35003658     0.14700
C1881       C  0.58368909  0.59183405  0.69781127    -0.14900
C1882       C  0.57731977  0.61089487  0.73805999    -0.30100
H1883       H  0.60650096  0.59200830  0.67942526     0.14100
H1884       H  0.55577356  0.60807018  0.76007463     0.14700
C1885       C  0.67142265  0.58373504  0.87763479    -0.14900
C1886       C  0.64381018  0.59620597  0.86630308    -0.30100
H1887       H  0.69233573  0.59098029  0.85700859     0.14100
H1888       H  0.62350310  0.58713408  0.88686678     0.14700
C1889       C  0.58505825  0.68112651  0.87279344    -0.14900
C1890       C  0.58363986  0.71063921  0.88853358    -0.30100
H1891       H  0.56963112  0.66462319  0.89213677     0.14100
H1892       H  0.59812002  0.72844984  0.87083597     0.14700
C1893       C  0.57910855  0.82544537  0.88623428    -0.14900
C1894       C  0.58671451  0.81586254  0.83748788    -0.30100
H1895       H  0.59147722  0.84480539  0.90329672     0.14100
H1896       H  0.57640559  0.79495544  0.82184098     0.14700
C1897       C  0.57320764  0.90086082  0.73842673    -0.14900
C1898       C  0.57272132  0.92176876  0.69910265    -0.30100
H1899       H  0.55509861  0.90137151  0.76847983     0.14100
H1900       H  0.59214910  0.92379692  0.67177086     0.14700
C1901       C  0.65453309  0.90288411  0.84642018    -0.14900
C1902       C  0.63819983  0.91189916  0.88901426    -0.30100
H1903       H  0.67690588  0.91353542  0.83834440     0.14100
H1904       H  0.61717935  0.89973701  0.90024859     0.14700
C1905       C  0.80714592  0.58163287  0.89186324    -0.14900
C1906       C  0.83009530  0.60193068  0.90034524    -0.30100
H1907       H  0.79551241  0.58121219  0.85382735     0.14100
H1908       H  0.84370304  0.59963403  0.93625817     0.14700
C1909       C  0.91181358  0.59949248  0.79032487    -0.14900
C1910       C  0.91317945  0.58252770  0.74603515    -0.30100
H1911       H  0.92901515  0.59605443  0.82104938     0.14100
H1912       H  0.89461976  0.58353191  0.71722821     0.14700
C1913       C  0.89806775  0.68113849  0.89878015    -0.14900
C1914       C  0.91351239  0.70783548  0.89188162    -0.30100
H1915       H  0.90291177  0.66744767  0.93397218     0.14100
H1916       H  0.91149732  0.72060334  0.85493172     0.14700
C1917       C  0.83829150  0.90465564  0.83294092    -0.14900
C1918       C  0.84729831  0.91508379  0.88023854    -0.30100
H1919       H  0.81675567  0.91294626  0.81601387     0.14100
H1920       H  0.86718850  0.90499217  0.89978142     0.14700
C1921       C  0.91640176  0.83145583  0.86084656    -0.14900
C1922       C  0.92885210  0.80318416  0.86520808    -0.30100
H1923       H  0.92204193  0.84832356  0.89097787     0.14100
H1924       H  0.92576374  0.78618107  0.83436349     0.14700
C1925       C  0.92939787  0.90731133  0.74449245    -0.14900
C1926       C  0.93165308  0.92434915  0.70021454    -0.30100
H1927       H  0.94453881  0.91240910  0.77760726     0.14100
H1928       H  0.91500285  0.92184678  0.66842586     0.14700
C1929       C  0.85268639  0.82552702  0.69081252    -0.14900
C1930       C  0.82866041  0.80631806  0.69942955    -0.30100
H1931       H  0.86095379  0.82945851  0.65059379     0.14100
H1932       H  0.82044772  0.80232918  0.73967049     0.14700
C1933       C  0.82485452  0.66718809  0.68906065    -0.14900
C1934       C  0.82508483  0.67424468  0.74111959    -0.30100
H1935       H  0.83815205  0.64805058  0.67416437     0.14100
H1936       H  0.81031456  0.69270103  0.75517889     0.14700
C1937       C  0.68602126  0.81238772  0.69741467    -0.14900
C1938       C  0.66320876  0.83269962  0.68764338    -0.30100
H1939       H  0.69120839  0.80596100  0.73807277     0.14100
H1940       H  0.65782786  0.83884347  0.64693373     0.14700
C1941       C  0.83537461  0.81042463  0.33991787    -0.14900
C1942       C  0.82417652  0.82276721  0.29494541    -0.30100
H1943       H  0.85974343  0.81345701  0.34925749     0.14100
H1944       H  0.79950231  0.82141031  0.28687290     0.14700
C1945       C  0.67053028  0.68105799  0.73144746    -0.14900
C1946       C  0.68439247  0.66774991  0.68958353    -0.30100
H1947       H  0.67391158  0.70554464  0.73818093     0.14100
H1948       H  0.67933509  0.64377497  0.68081136     0.14700
C1949       C  0.68118521  0.81188542  0.33542199    -0.14900
C1950       C  0.65689188  0.83038843  0.34469951    -0.30100
H1951       H  0.68708575  0.80614964  0.29477758     0.14100
H1952       H  0.65091461  0.83610396  0.38530906     0.14700
C1953       C  0.82108385  0.67758650  0.32374461    -0.14900
C1954       C  0.84141288  0.65451431  0.32652938    -0.30100
H1955       H  0.81412532  0.68594882  0.28491781     0.14100
H1956       H  0.84857577  0.64621311  0.36527540     0.14700
C1957       C  0.68672059  0.67847697  0.33032528    -0.14900
C1958       C  0.66524579  0.65646066  0.33788634    -0.30100
H1959       H  0.69211309  0.68633003  0.29032464     0.14100
H1960       H  0.65973652  0.64826216  0.37761369     0.14700
loop_ 
_geom_bond_atom_site_label_1 
_geom_bond_atom_site_label_2 
_geom_bond_distance 
_geom_bond_site_symmetry_2 
_ccdc_geom_bond_type 
O1          Zr13   2.440       .  S
O1            C3   1.289       .  A
O2          Zr39   2.417       .  S
O2            C3   1.283       .  A
C3          C487   1.475       .  S
O4          Zr16   2.445       .  S
O4            C6   1.290       .  A
O5          Zr40   2.433       .  S
O5            C6   1.287       .  A
C6          C467   1.483       .  S
O7          Zr16   2.471       .  S
O7            C9   1.293       .  A
O8          Zr39   2.396       .  S
O8            C9   1.280       .  A
C9          C479   1.475       .  S
O10         Zr13   2.444       .  S
O10          C12   1.287       .  A
O11         Zr40   2.432       .  S
O11          C12   1.287       .  A
C12         C476   1.479       .  S
Zr13         O14   2.434       .  S
Zr13         O15   2.437       .  S
Zr13         O19   2.374       .  S
Zr13         O20   2.370       .  S
Zr13         O43   2.370       .  S
Zr13         O45   2.371       .  S
O14          H57   0.990       .  S
O15          H56   0.990       .  S
O15          H60   0.990       .  S
Zr16         O17   2.436       .  S
Zr16         O18   2.435       .  S
Zr16         O20   2.383       .  S
Zr16         O19   2.366       .  S
Zr16         O44   2.373       .  S
Zr16         O46   2.378       .  S
O17          H58   0.990       .  S
O17          H61   0.990       .  S
O18          H51   0.990       .  S
O19         Zr39   2.374       .  S
O20         Zr40   2.387       .  S
O20          H47   0.966       .  S
O21         Zr33   2.448       .  S
O21          C23   1.289       .  A
O22         Zr40   2.428       .  S
O22          C23   1.288       .  A
C23         C463   1.480       .  S
O24         Zr36   2.447       .  S
O24          C26   1.288       .  A
O25         Zr39   2.424       .  S
O25          C26   1.285       .  A
C26         C471   1.473       .  S
O27         Zr36   2.448       .  S
O27          C29   1.290       .  A
O28         Zr40   2.424       .  S
O28          C29   1.285       .  A
C29         C460   1.482       .  S
O30         Zr33   2.488       .  S
O30          C32   1.298       .  A
O31         Zr39   2.381       .  S
O31          C32   1.276       .  A
C32         C483   1.478       .  S
Zr33         O34   2.435       .  S
Zr33         O35   2.434       .  S
Zr33         O41   2.384       .  S
Zr33         O42   2.362       .  S
Zr33         O45   2.364       .  S
Zr33         O43   2.384       .  S
O34          H54   0.990       .  S
O34          H59   0.990       .  S
O35          H55   0.990       .  S
Zr36         O37   2.435       .  S
Zr36         O38   2.434       .  S
Zr36         O42   2.371       .  S
Zr36         O41   2.373       .  S
Zr36         O46   2.369       .  S
Zr36         O44   2.377       .  S
O37          H53   0.990       .  S
O38          H52   0.990       .  S
O38          H62   0.990       .  S
Zr39         O42   2.378       .  S
Zr39         O44   2.380       .  S
Zr39         O45   2.382       .  S
Zr40         O41   2.392       .  S
Zr40         O43   2.387       .  S
Zr40         O46   2.384       .  S
O41          H49   0.965       .  S
O44          H48   0.966       .  S
O45          H50   0.966       .  S
C63          C64   1.539       .  S
C63          C69   1.540       .  S
C63          C67   1.541       .  S
C63         C459   1.511       .  S
C64          H71   1.085       .  S
C64          C65   1.368       .  D
C65          C66   1.532       .  S
C65         C451   1.479       .  S
C66          C70   1.527       .  S
C66          C68   1.541       .  S
C66          H72   1.108       .  S
C67          H73   1.086       .  S
C67          C68   1.367       .  D
C68         C447   1.486       .  S
C69          H74   1.085       .  S
C69          C70   1.365       .  D
C70         C455   1.479       .  S
C75          C76   1.542       .  S
C75          C81   1.546       .  S
C75          C79   1.545       .  S
C75         C464   1.523       .  S
C76          H83   1.086       .  S
C76          C77   1.368       .  D
C77          C78   1.530       .  S
C77         C436   1.481       .  S
C78          C82   1.531       .  S
C78          C80   1.529       .  S
C78          H84   1.112       .  S
C79          H85   1.086       .  S
C79          C80   1.368       .  D
C80         C443   1.480       .  S
C81          H86   1.081       .  S
C81          C82   1.366       .  D
C82         C439   1.480       .  S
C87          C88   1.542       .  S
C87          C93   1.544       .  S
C87          C91   1.537       .  S
C87         C468   1.513       .  S
C88          H95   1.086       .  S
C88          C89   1.365       .  D
C89          C90   1.537       .  S
C89         C431   1.482       .  S
C90          C94   1.532       .  S
C90          C92   1.539       .  S
C90          H96   1.111       .  S
C91          H97   1.085       .  S
C91          C92   1.367       .  D
C92         C424   1.485       .  S
C93          H98   1.084       .  S
C93          C94   1.368       .  D
C94         C427   1.487       .  S
C99         C100   1.543       .  S
C99         C105   1.551       .  S
C99         C103   1.542       .  S
C99         C475   1.527       .  S
C100        H107   1.086       .  S
C100        C101   1.364       .  D
C101        C102   1.535       .  S
C101        C419   1.480       .  S
C102        C106   1.525       .  S
C102        C104   1.534       .  S
C102        H108   1.112       .  S
C103        H109   1.086       .  S
C103        C104   1.370       .  D
C104        C416   1.482       .  S
C105        H110   1.082       .  S
C105        C106   1.365       .  D
C106        C412   1.479       .  S
N111        C116   1.353       .  A
N111       C1095   1.353       .  A
N111        H143   1.037       .  S
N112        C120   1.351       .  A
N112        C609   1.353   1_545  A
N113        C118   1.353       .  A
N113       C1097   1.354       .  A
N113        H144   1.036       .  S
N114        C122   1.352   1_565  A
N114        C611   1.354       .  A
C115       N1091   1.353   1_455  A
C115        C123   1.387       .  A
C115        C131   1.415       .  A
C116        C132   1.414       .  A
C116        C124   1.387       .  A
C117       N1093   1.353       .  A
C117        C125   1.388       .  A
C117        C134   1.418       .  A
C118        C133   1.418       .  A
C118        C126   1.388       .  A
C119        N602   1.354       .  A
C119        C131   1.417       .  A
C119        C127   1.386       .  A
C120        C134   1.415       .  A
C120        C128   1.388       .  A
C121        N604   1.349       .  A
C121        C129   1.387       .  A
C121        C132   1.410       .  A
C122        C130   1.386       .  A
C122        C133   1.415       .  A
C123       C1104   1.376   1_455  A
C123        H135   1.082       .  S
C124       C1103   1.376       .  A
C124        H136   1.082       .  S
C125       C1106   1.375   1_455  A
C125        H137   1.082       .  S
C126       C1105   1.375       .  A
C126        H138   1.082       .  S
C127        C618   1.372       .  A
C127        H139   1.082       .  S
C128        C617   1.372   1_545  A
C128        H140   1.082       .  S
C129        C620   1.373       .  A
C129        H141   1.082       .  S
C130        C619   1.371   1_545  A
C130        H142   1.082       .  S
C131        C428   1.489       .  S
C132        C456   1.478       .  S
C133        C440   1.485       .  S
C134        C411   1.485       .  S
C145        C146   1.542       .  S
C145        C151   1.542       .  S
C145        C149   1.539       .  S
C145        C472   1.514       .  S
C146        H153   1.086       .  S
C146        C147   1.369       .  D
C147        C148   1.534       .  S
C147        C403   1.484       .  S
C148        C152   1.527       .  S
C148        C150   1.539       .  S
C148        H154   1.111       .  S
C149        H155   1.086       .  S
C149        C150   1.363       .  D
C150        C400   1.479       .  S
C151        H156   1.084       .  S
C151        C152   1.367       .  D
C152        C407   1.478       .  S
C157        C158   1.539       .  S
C157        C163   1.541       .  S
C157        C161   1.547       .  S
C157        C480   1.515       .  S
C158        H165   1.086       .  S
C158        C159   1.363       .  D
C159        C160   1.529       .  S
C159        C395   1.476       .  S
C160        C164   1.535       .  S
C160        C162   1.535       .  S
C160        H166   1.112       .  S
C161        H167   1.086       .  S
C161        C162   1.372       .  D
C162        C388   1.486       .  S
C163        H168   1.086       .  S
C163        C164   1.364       .  D
C164        C391   1.479       .  S
N169        C174   1.355   1_556  A
N169        C173   1.354       .  A
N169        H201   1.041       .  S
N170        C177   1.351       .  A
N170       C1158   1.349       .  A
N171        C176   1.355   1_556  A
N171        C175   1.352       .  A
N171        H202   1.035       .  S
N172        C179   1.350       .  A
N172       C1160   1.350       .  A
C173        C181   1.386       .  A
C173        C189   1.415       .  A
C174        C190   1.417       .  A
C174        C182   1.388       .  A
C175        C183   1.386       .  A
C175        C192   1.415       .  A
C176        C191   1.418       .  A
C176        C184   1.387       .  A
C177        C189   1.409       .  A
C177        C185   1.387       .  A
C178       N1150   1.352       .  A
C178        C192   1.415       .  A
C178        C186   1.386       .  A
C179        C187   1.385       .  A
C179        C190   1.407       .  A
C180       N1152   1.354       .  A
C180        C188   1.386       .  A
C180        C191   1.418       .  A
C181        C182   1.370   1_556  A
C181        H193   1.082       .  S
C182        H194   1.080       .  S
C183        C184   1.377   1_556  A
C183        H195   1.082       .  S
C184        H196   1.082       .  S
C185       C1166   1.371       .  A
C185        H197   1.082       .  S
C186       C1165   1.371   1_455  A
C186        H198   1.082       .  S
C187       C1168   1.371       .  A
C187        H199   1.082       .  S
C188       C1167   1.370   1_455  A
C188        H200   1.082       .  S
C189        C452   1.485       .  S
C190        C399   1.485       .  S
C191        C387   1.495       .  S
C192        C423   1.488       .  S
C203        C204   1.536       .  S
C203        C209   1.536       .  S
C203        C207   1.532       .  S
C203        C488   1.506       .  S
C204        H211   1.086       .  S
C204        C205   1.368       .  D
C205        C206   1.548       .  S
C205        C379   1.489       .  S
C206        C210   1.531       .  S
C206        C208   1.545       .  S
C206        H212   1.109       .  S
C207        H213   1.087       .  S
C207        C208   1.360       .  D
C208        C376   1.478       .  S
C209        H214   1.086       .  S
C209        C210   1.365       .  D
C210        C384   1.477       .  S
N215        C220   1.350   1_565  A
N215        C709   1.351       .  A
N215        H247   1.038       .  S
N216        C223   1.352       .  A
N216       C1204   1.352       .  A
N217        C222   1.353   1_565  A
N217        C711   1.353       .  A
N217        H248   1.037       .  S
N218        C225   1.349       .  A
N218       C1206   1.349       .  A
C219        N705   1.352       .  A
C219        C227   1.391       .  A
C219        C235   1.418       .  A
C220        C236   1.405       .  A
C220        C228   1.385       .  A
C221        N707   1.354       .  A
C221        C229   1.389       .  A
C221        C238   1.418       .  A
C222        C237   1.414       .  A
C222        C230   1.387       .  A
C223        C235   1.413       .  A
C223        C231   1.387       .  A
C224       N1196   1.351       .  A
C224        C238   1.415       .  A
C224        C232   1.388       .  A
C225        C233   1.386       .  A
C225        C236   1.407       .  A
C226       N1198   1.350   1_455  A
C226        C234   1.386       .  A
C226        C237   1.411       .  A
C227        C718   1.374       .  A
C227        H239   1.082       .  S
C228        C717   1.371   1_545  A
C228        H240   1.083       .  S
C229        C720   1.376       .  A
C229        H241   1.083       .  S
C230        C719   1.374   1_545  A
C230        H242   1.082       .  S
C231       C1212   1.373       .  A
C231        H243   1.082       .  S
C232       C1211   1.371   1_455  A
C232        H244   1.082       .  S
C233       C1214   1.370       .  A
C233        H245   1.083       .  S
C234       C1213   1.371   1_455  A
C234        H246   1.082       .  S
C235        C408   1.481       .  S
C236        C371   1.469       .  S
C237        C383   1.481       .  S
C238        C396   1.482       .  S
N249        C254   1.356       .  A
N249        C253   1.357   1_554  A
N249        H281   1.039       .  S
N250        C258   1.354       .  A
N250        C747   1.353   1_545  A
N251        C256   1.354       .  A
N251        C255   1.354   1_554  A
N251        H282   1.038       .  S
N252        C260   1.354   1_565  A
N252        C749   1.355       .  A
C253        C261   1.389       .  A
C253        C269   1.420       .  A
C254        C270   1.418       .  A
C254        C262   1.387       .  A
C255        C263   1.385   1_556  A
C255        C272   1.417       .  A
C256        C271   1.418       .  A
C256        C264   1.388       .  A
C257        N740   1.353       .  A
C257        C269   1.415       .  A
C257        C265   1.386       .  A
C258        C272   1.415       .  A
C258        C266   1.386       .  A
C259        N742   1.353       .  A
C259        C267   1.387       .  A
C259        C270   1.413       .  A
C260        C268   1.386       .  A
C260        C271   1.418       .  A
C261        C262   1.370   1_556  A
C261        H273   1.082       .  S
C262        H274   1.082       .  S
C263        C264   1.374       .  A
C263        H275   1.082   1_554  S
C264        H276   1.079       .  S
C265        C756   1.372       .  A
C265        H277   1.082       .  S
C266        C755   1.371   1_545  A
C266        H278   1.082       .  S
C267        C758   1.371       .  A
C267        H279   1.083       .  S
C268        C757   1.374   1_545  A
C268        H280   1.082       .  S
C269        C432   1.489       .  S
C270        C392   1.487       .  S
C271        C380   1.492       .  S
C272        C415   1.495       .  S
N283        C288   1.352   1_554  A
N283        C287   1.354       .  A
N283        H315   1.034       .  S
N284        C291   1.354       .  A
N284       C1272   1.355       .  A
N285        C290   1.356   1_554  A
N285        C289   1.356       .  A
N285        H316   1.040       .  S
N286        C293   1.354       .  A
N286       C1274   1.355       .  A
C287        C295   1.387       .  A
C287        C303   1.419       .  A
C288        C304   1.417       .  A
C288        C296   1.386       .  A
C289        C297   1.387       .  A
C289        C306   1.416       .  A
C290        C305   1.417       .  A
C290        C298   1.388       .  A
C291        C303   1.417       .  A
C291        C299   1.386       .  A
C292       N1264   1.350   1_455  A
C292        C306   1.409       .  A
C292        C300   1.386       .  A
C293        C301   1.387       .  A
C293        C304   1.416       .  A
C294       N1266   1.352   1_455  A
C294        C302   1.386       .  A
C294        C305   1.412       .  A
C295        C296   1.378   1_554  A
C295        H307   1.082       .  S
C296        H308   1.082       .  S
C297        C298   1.369   1_554  A
C297        H309   1.082       .  S
C298        H310   1.082       .  S
C299       C1280   1.371       .  A
C299        H311   1.082       .  S
C300       C1279   1.371   1_455  A
C300        H312   1.082       .  S
C301       C1282   1.371       .  A
C301        H313   1.082       .  S
C302       C1281   1.370   1_455  A
C302        H314   1.082       .  S
C303        C368   1.493       .  S
C304        C444   1.489       .  S
C305        C420   1.486       .  S
C306        C375   1.486       .  S
C317        C318   1.547       .  S
C317        C323   1.523       .  S
C317        C321   1.549       .  S
C317        C484   1.513       .  S
C318        H325   1.086       .  S
C318        C319   1.372       .  D
C319        C320   1.534       .  S
C319        C367   1.485       .  S
C320        C324   1.532       .  S
C320        C322   1.533       .  S
C320        H326   1.112       .  S
C321        H327   1.086       .  S
C321        C322   1.372       .  D
C322        C364   1.484       .  S
C323        H328   1.086       .  S
C323        C324   1.358       .  D
C324        C372   1.472       .  S
N329        C334   1.352       .  A
N329        C333   1.354   1_554  A
N329        H361   1.038       .  S
N330        C338   1.352       .  A
N330        C827   1.353       .  A
N331        C336   1.353       .  A
N331        C335   1.354   1_554  A
N331        H362   1.037       .  S
N332        C340   1.356       .  A
N332        C829   1.355       .  A
C333        C341   1.386       .  A
C333        C349   1.416       .  A
C334        C350   1.417       .  A
C334        C342   1.386       .  A
C335        C343   1.388       .  A
C335        C352   1.417       .  A
C336        C351   1.418       .  A
C336        C344   1.386       .  A
C337        N820   1.350       .  A
C337        C349   1.410       .  A
C337        C345   1.387       .  A
C338        C352   1.415       .  A
C338        C346   1.387       .  A
C339        N822   1.353       .  A
C339        C347   1.388       .  A
C339        C350   1.417       .  A
C340        C348   1.386       .  A
C340        C351   1.418       .  A
C341        C342   1.379   1_556  A
C341        H353   1.082       .  S
C342        H354   1.082       .  S
C343        C344   1.374   1_556  A
C343        H355   1.080       .  S
C344        H356   1.082       .  S
C345        C836   1.373   1_545  A
C345        H357   1.083       .  S
C346        C835   1.370       .  A
C346        H358   1.082       .  S
C347        C838   1.375   1_545  A
C347        H359   1.082       .  S
C348        C837   1.372       .  A
C348        H360   1.082       .  S
C349        C435   1.485       .  S
C350        C363   1.496       .  S
C351        C404   1.497       .  S
C352        C448   1.485       .  S
C363        H365   1.086       .  S
C363        C364   1.345       .  D
C364        H366   1.087       .  S
C367        H369   1.087       .  S
C367        C368   1.344       .  D
C368        H370   1.086       .  S
C371        H373   1.086       .  S
C371        C372   1.341       .  D
C372        H374   1.086       .  S
C375        H377   1.087       .  S
C375        C376   1.338       .  D
C376        H378   1.087       .  S
C379        H381   1.087       .  S
C379        C380   1.345       .  D
C380        H382   1.084       .  S
C383        H385   1.086       .  S
C383        C384   1.343       .  D
C384        H386   1.087       .  S
C387        H389   1.086       .  S
C387        C388   1.345       .  D
C388        H390   1.087       .  S
C391        H393   1.086       .  S
C391        C392   1.343       .  D
C392        H394   1.087       .  S
C395        H397   1.087       .  S
C395        C396   1.342       .  D
C396        H398   1.086       .  S
C399        H401   1.087       .  S
C399        C400   1.341       .  D
C400        H402   1.086       .  S
C403        H405   1.087       .  S
C403        C404   1.347       .  D
C404        H406   1.086       .  S
C407        H409   1.087       .  S
C407        C408   1.340       .  D
C408        H410   1.084       .  S
C411        H413   1.086       .  S
C411        C412   1.342       .  D
C412        H414   1.087       .  S
C415        H417   1.086       .  S
C415        C416   1.346       .  D
C416        H418   1.087       .  S
C419        H421   1.086       .  S
C419        C420   1.342       .  D
C420        H422   1.087       .  S
C423        H425   1.085       .  S
C423        C424   1.346       .  D
C424        H426   1.087       .  S
C427        H429   1.087       .  S
C427        C428   1.345       .  D
C428        H430   1.084       .  S
C431        H433   1.086       .  S
C431        C432   1.344       .  D
C432        H434   1.087       .  S
C435        H437   1.086       .  S
C435        C436   1.341       .  D
C436        H438   1.087       .  S
C439        H441   1.087       .  S
C439        C440   1.343       .  D
C440        H442   1.086       .  S
C443        H445   1.087       .  S
C443        C444   1.343       .  D
C444        H446   1.086       .  S
C447        H449   1.086       .  S
C447        C448   1.344       .  D
C448        H450   1.083       .  S
C451        H453   1.088       .  S
C451        C452   1.342       .  D
C452        H454   1.084       .  S
C455        H457   1.087       .  S
C455        C456   1.340       .  D
C456        H458   1.084       .  S
C459        H461   1.087       .  S
C459        C460   1.344       .  D
C460        H462   1.087       .  S
C463        H465   1.080       .  S
C463        C464   1.350       .  D
C464        H466   1.087       .  S
C467        H469   1.087       .  S
C467        C468   1.347       .  D
C468        H470   1.087       .  S
C471        H473   1.086       .  S
C471        C472   1.346       .  D
C472        H474   1.087       .  S
C475        H477   1.087       .  S
C475        C476   1.349       .  D
C476        H478   1.081       .  S
C479        H481   1.086       .  S
C479        C480   1.352       .  D
C480        H482   1.087       .  S
C483        H485   1.087       .  S
C483        C484   1.332       .  D
C484        H486   1.087       .  S
C487        H489   1.087       .  S
C487        C488   1.342       .  D
C488        H490   1.087       .  S
O491       Zr503   2.446       .  S
O491        C493   1.289       .  A
O492       Zr529   2.408       .  S
O492        C493   1.283       .  A
C493        C977   1.470       .  S
O494       Zr506   2.464       .  S
O494        C496   1.293       .  A
O495       Zr530   2.412       .  S
O495        C496   1.283       .  A
C496        C957   1.480       .  S
O497       Zr506   2.469       .  S
O497        C499   1.294       .  A
O498       Zr529   2.417       .  S
O498        C499   1.284       .  A
C499        C969   1.485       .  S
O500       Zr503   2.444       .  S
O500        C502   1.288       .  A
O501       Zr530   2.456       .  S
O501        C502   1.291       .  A
C502        C966   1.484       .  S
Zr503       O504   2.434       .  S
Zr503       O505   2.437       .  S
Zr503       O509   2.373       .  S
Zr503       O510   2.375       .  S
Zr503       O533   2.372       .  S
Zr503       O535   2.371       .  S
O504        H547   0.990       .  S
O505        H546   0.990       .  S
O505        H550   0.990       .  S
Zr506       O507   2.435       .  S
Zr506       O508   2.435       .  S
Zr506       O510   2.378       .  S
Zr506       O509   2.373       .  S
Zr506       O534   2.379       .  S
Zr506       O536   2.376       .  S
O507        H548   0.990       .  S
O507        H551   0.990       .  S
O508        H541   0.990       .  S
O509       Zr529   2.378       .  S
O510       Zr530   2.387       .  S
O510        H537   0.966       .  S
O511       Zr523   2.459       .  S
O511        C513   1.291       .  A
O512       Zr530   2.421       .  S
O512        C513   1.286       .  A
C513        C953   1.474       .  S
O514       Zr526   2.444       .  S
O514        C516   1.286       .  A
O515       Zr529   2.419       .  S
O515        C516   1.285       .  A
C516        C961   1.470       .  S
O517       Zr526   2.430       .  S
O517        C519   1.284       .  A
O518       Zr530   2.442       .  S
O518        C519   1.290       .  A
C519        C950   1.473       .  S
O520       Zr523   2.467       .  S
O520        C522   1.294       .  A
O521       Zr529   2.422       .  S
O521        C522   1.285       .  A
C522        C973   1.486       .  S
Zr523       O524   2.436       .  S
Zr523       O525   2.434       .  S
Zr523       O531   2.373       .  S
Zr523       O532   2.371       .  S
Zr523       O535   2.373       .  S
Zr523       O533   2.378       .  S
O524        H544   0.990       .  S
O524        H549   0.990       .  S
O525        H545   0.990       .  S
Zr526       O527   2.434       .  S
Zr526       O528   2.437       .  S
Zr526       O532   2.363       .  S
Zr526       O531   2.373       .  S
Zr526       O536   2.380       .  S
Zr526       O534   2.373       .  S
O527        H543   0.990       .  S
O528        H542   0.990       .  S
O528        H552   0.990       .  S
Zr529       O532   2.374       .  S
Zr529       O534   2.381       .  S
Zr529       O535   2.385       .  S
Zr530       O531   2.389       .  S
Zr530       O533   2.387       .  S
Zr530       O536   2.385       .  S
O531        H539   0.965       .  S
O534        H538   0.966       .  S
O535        H540   0.966       .  S
C553        C554   1.538       .  S
C553        C559   1.547       .  S
C553        C557   1.535       .  S
C553        C949   1.513       .  S
C554        H561   1.086       .  S
C554        C555   1.367       .  D
C555        C556   1.535       .  S
C555        C941   1.480       .  S
C556        C560   1.534       .  S
C556        C558   1.541       .  S
C556        H562   1.109       .  S
C557        H563   1.087       .  S
C557        C558   1.360       .  D
C558        C937   1.484       .  S
C559        H564   1.084       .  S
C559        C560   1.372       .  D
C560        C945   1.487       .  S
C565        C566   1.543       .  S
C565        C571   1.539       .  S
C565        C569   1.546       .  S
C565        C954   1.516       .  S
C566        H573   1.085       .  S
C566        C567   1.371       .  D
C567        C568   1.532       .  S
C567        C926   1.484       .  S
C568        C572   1.528       .  S
C568        C570   1.533       .  S
C568        H574   1.112       .  S
C569        H575   1.085       .  S
C569        C570   1.371       .  D
C570        C933   1.483       .  S
C571        H576   1.086       .  S
C571        C572   1.360       .  D
C572        C929   1.475       .  S
C577        C578   1.539       .  S
C577        C583   1.540       .  S
C577        C581   1.541       .  S
C577        C958   1.513       .  S
C578        H585   1.086       .  S
C578        C579   1.366       .  D
C579        C580   1.543       .  S
C579        C921   1.482       .  S
C580        C584   1.529       .  S
C580        C582   1.542       .  S
C580        H586   1.108       .  S
C581        H587   1.086       .  S
C581        C582   1.367       .  D
C582        C914   1.491       .  S
C583        H588   1.086       .  S
C583        C584   1.364       .  D
C584        C917   1.479       .  S
C589        C590   1.546       .  S
C589        C595   1.543       .  S
C589        C593   1.550       .  S
C589        C965   1.526       .  S
C590        H597   1.086       .  S
C590        C591   1.368       .  D
C591        C592   1.531       .  S
C591        C909   1.483       .  S
C592        C596   1.535       .  S
C592        C594   1.527       .  S
C592        H598   1.110       .  S
C593        H599   1.085       .  S
C593        C594   1.372       .  D
C594        C906   1.483       .  S
C595        H600   1.086       .  S
C595        C596   1.363       .  D
C596        C902   1.482       .  S
N601        C606   1.355       .  A
N601       C1585   1.353       .  A
N601        H633   1.036       .  S
N602        C610   1.352       .  A
N603        C608   1.351       .  A
N603       C1587   1.349       .  A
N603        H634   1.038       .  S
N604        C612   1.351       .  A
C605       N1581   1.353       .  A
C605        C613   1.387       .  A
C605        C621   1.414       .  A
C606        C622   1.417       .  A
C606        C614   1.387       .  A
C607       N1583   1.353   1_455  A
C607        C615   1.389       .  A
C607        C624   1.419       .  A
C608        C623   1.409       .  A
C608        C616   1.386       .  A
C609        C621   1.413       .  A
C609        C617   1.385       .  A
C610        C624   1.418       .  A
C610        C618   1.388       .  A
C611        C619   1.388       .  A
C611        C622   1.418       .  A
C612        C620   1.386       .  A
C612        C623   1.410       .  A
C613       C1594   1.374   1_455  A
C613        H625   1.082       .  S
C614       C1593   1.375       .  A
C614        H626   1.082       .  S
C615       C1596   1.372   1_455  A
C615        H627   1.080       .  S
C616       C1595   1.374       .  A
C616        H628   1.082       .  S
C617        H629   1.082       .  S
C618        H630   1.082       .  S
C619        H631   1.081       .  S
C620        H632   1.083       .  S
C621        C918   1.488       .  S
C622        C946   1.493       .  S
C623        C930   1.481       .  S
C624        C901   1.484       .  S
C635        C636   1.543       .  S
C635        C641   1.538       .  S
C635        C639   1.542       .  S
C635        C962   1.511       .  S
C636        H643   1.086       .  S
C636        C637   1.366       .  D
C637        C638   1.529       .  S
C637        C893   1.475       .  S
C638        C642   1.531       .  S
C638        C640   1.530       .  S
C638        H644   1.112       .  S
C639        H645   1.086       .  S
C639        C640   1.367       .  D
C640        C890   1.479       .  S
C641        H646   1.084       .  S
C641        C642   1.367       .  D
C642        C897   1.477       .  S
C647        C648   1.537       .  S
C647        C653   1.540       .  S
C647        C651   1.544       .  S
C647        C970   1.520       .  S
C648        H655   1.086       .  S
C648        C649   1.365       .  D
C649        C650   1.531       .  S
C649        C885   1.478       .  S
C650        C654   1.544       .  S
C650        C652   1.539       .  S
C650        H656   1.109       .  S
C651        H657   1.086       .  S
C651        C652   1.367       .  D
C652        C878   1.488       .  S
C653        H658   1.086       .  S
C653        C654   1.368       .  D
C654        C881   1.488       .  S
N659        C664   1.353       .  A
N659        C663   1.354   1_554  A
N659        H691   1.037       .  S
N660        C667   1.353       .  A
N660       C1648   1.354       .  A
N661        C666   1.357       .  A
N661        C665   1.356   1_554  A
N661        H692   1.041       .  S
N662        C669   1.354       .  A
N662       C1650   1.356       .  A
C663        C671   1.387       .  A
C663        C679   1.416       .  A
C664        C680   1.414       .  A
C664        C672   1.386       .  A
C665        C673   1.388       .  A
C665        C682   1.418       .  A
C666        C681   1.419       .  A
C666        C674   1.388       .  A
C667        C679   1.415       .  A
C667        C675   1.386       .  A
C668       N1640   1.353       .  A
C668        C682   1.413       .  A
C668        C676   1.386       .  A
C669        C677   1.385       .  A
C669        C680   1.414       .  A
C670       N1642   1.352   1_455  A
C670        C678   1.386       .  A
C670        C681   1.412       .  A
C671        C672   1.375   1_556  A
C671        H683   1.082       .  S
C672        H684   1.082       .  S
C673        C674   1.375   1_556  A
C673        H685   1.083       .  S
C674        H686   1.082       .  S
C675       C1656   1.373       .  A
C675        H687   1.082       .  S
C676       C1655   1.373   1_455  A
C676        H688   1.082       .  S
C677       C1658   1.371       .  A
C677        H689   1.082       .  S
C678       C1657   1.373   1_455  A
C678        H690   1.082       .  S
C679        C942   1.492       .  S
C680        C889   1.490       .  S
C681        C877   1.491       .  S
C682        C913   1.487       .  S
C693        C694   1.539       .  S
C693        C699   1.538       .  S
C693        C697   1.534       .  S
C693        C978   1.506       .  S
C694        H701   1.086       .  S
C694        C695   1.362       .  D
C695        C696   1.538       .  S
C695        C869   1.477       .  S
C696        C700   1.535       .  S
C696        C698   1.546       .  S
C696        H702   1.111       .  S
C697        H703   1.087       .  S
C697        C698   1.360       .  D
C698        C866   1.483       .  S
C699        H704   1.086       .  S
C699        C700   1.368       .  D
C700        C874   1.479       .  S
N705        C710   1.354       .  A
N705        H737   1.037       .  S
N706        C713   1.351       .  A
N706       C1694   1.349       .  A
N707        C712   1.356       .  A
N707        H738   1.036       .  S
N708        C715   1.351       .  A
N708       C1696   1.350       .  A
C709        C717   1.391       .  A
C709        C725   1.415       .  A
C710        C726   1.413       .  A
C710        C718   1.386       .  A
C711        C719   1.388       .  A
C711        C728   1.414       .  A
C712        C727   1.418       .  A
C712        C720   1.387       .  A
C713        C725   1.410       .  A
C713        C721   1.386       .  A
C714       N1686   1.350   1_455  A
C714        C728   1.411       .  A
C714        C722   1.386       .  A
C715        C723   1.386       .  A
C715        C726   1.411       .  A
C716       N1688   1.351       .  A
C716        C724   1.388       .  A
C716        C727   1.415       .  A
C717        H729   1.081       .  S
C718        H730   1.083       .  S
C719        H731   1.083       .  S
C720        H732   1.082       .  S
C721       C1702   1.372       .  A
C721        H733   1.082       .  S
C722       C1701   1.372   1_455  A
C722        H734   1.082       .  S
C723       C1704   1.370       .  A
C723        H735   1.082       .  S
C724       C1703   1.368   1_455  A
C724        H736   1.082       .  S
C725        C898   1.480       .  S
C726        C861   1.485       .  S
C727        C873   1.490       .  S
C728        C886   1.481       .  S
N739        C744   1.354       .  A
N739        C743   1.353   1_554  A
N739        H771   1.033       .  S
N740        C748   1.355       .  A
N741        C746   1.356       .  A
N741        C745   1.355   1_554  A
N741        H772   1.038       .  S
N742        C750   1.353       .  A
C743        C751   1.388       .  A
C743        C759   1.417       .  A
C744        C760   1.420       .  A
C744        C752   1.388       .  A
C745        C753   1.389       .  A
C745        C762   1.420       .  A
C746        C761   1.417       .  A
C746        C754   1.387       .  A
C747        C759   1.416       .  A
C747        C755   1.387       .  A
C748        C762   1.416       .  A
C748        C756   1.386       .  A
C749        C757   1.388       .  A
C749        C760   1.421       .  A
C750        C758   1.386       .  A
C750        C761   1.414       .  A
C751        C752   1.375   1_556  A
C751        H763   1.081       .  S
C752        H764   1.083       .  S
C753        C754   1.369   1_556  A
C753        H765   1.081       .  S
C754        H766   1.082       .  S
C755        H767   1.082       .  S
C756        H768   1.082       .  S
C757        H769   1.082       .  S
C758        H770   1.083       .  S
C759        C922   1.482       .  S
C760        C882   1.491       .  S
C761        C870   1.488       .  S
C762        C905   1.492       .  S
N773        C778   1.355   1_554  A
N773        C777   1.358       .  A
N773        H805   1.039       .  S
N774        C781   1.351       .  A
N774       C1762   1.348       .  A
N775        C780   1.353   1_554  A
N775        C779   1.353       .  A
N775        H806   1.036       .  S
N776        C783   1.353       .  A
N776       C1764   1.354       .  A
C777        C785   1.386       .  A
C777        C793   1.419       .  A
C778        C794   1.421       .  A
C778        C786   1.389       .  A
C779        C787   1.386       .  A
C779        C796   1.414       .  A
C780        C795   1.417       .  A
C780        C788   1.387       .  A
C781        C793   1.411       .  A
C781        C789   1.387       .  A
C782       N1754   1.355   1_455  A
C782        C796   1.418       .  A
C782        C790   1.388       .  A
C783        C791   1.386       .  A
C783        C794   1.415       .  A
C784       N1756   1.356   1_455  A
C784        C792   1.386       .  A
C784        C795   1.418       .  A
C785        C786   1.373   1_554  A
C785        H797   1.082       .  S
C786        H798   1.082       .  S
C787        C788   1.377   1_554  A
C787        H799   1.082       .  S
C788        H800   1.082       .  S
C789       C1770   1.371       .  A
C789        H801   1.082       .  S
C790       C1769   1.367   1_455  A
C790        H802   1.081       .  S
C791       C1772   1.373       .  A
C791        H803   1.082       .  S
C792       C1771   1.372   1_455  A
C792        H804   1.082       .  S
C793        C858   1.492       .  S
C794        C934   1.490       .  S
C795        C910   1.496       .  S
C796        C865   1.492       .  S
C807        C808   1.549       .  S
C807        C813   1.538       .  S
C807        C811   1.547       .  S
C807        C974   1.519       .  S
C808        H815   1.085       .  S
C808        C809   1.371       .  D
C809        C810   1.530       .  S
C809        C857   1.485       .  S
C810        C814   1.529       .  S
C810        C812   1.531       .  S
C810        H816   1.112       .  S
C811        H817   1.086       .  S
C811        C812   1.371       .  D
C812        C854   1.480       .  S
C813        H818   1.086       .  S
C813        C814   1.363       .  D
C814        C862   1.478       .  S
N819        C824   1.353       .  A
N819        C823   1.355   1_554  A
N819        H851   1.036       .  S
N820        C828   1.351   1_545  A
N821        C826   1.350       .  A
N821        C825   1.352   1_554  A
N821        H852   1.039       .  S
N822        C830   1.354   1_545  A
C823        C831   1.388       .  A
C823        C839   1.417       .  A
C824        C840   1.419       .  A
C824        C832   1.387       .  A
C825        C833   1.387       .  A
C825        C842   1.411       .  A
C826        C841   1.413       .  A
C826        C834   1.386       .  A
C827        C839   1.418       .  A
C827        C835   1.388       .  A
C828        C842   1.410       .  A
C828        C836   1.387       .  A
C829        C837   1.387       .  A
C829        C840   1.418       .  A
C830        C838   1.386       .  A
C830        C841   1.416       .  A
C831        C832   1.378   1_556  A
C831        H843   1.082       .  S
C832        H844   1.082       .  S
C833        C834   1.374   1_556  A
C833        H845   1.079       .  S
C834        H846   1.082       .  S
C835        H847   1.082       .  S
C836        H848   1.082       .  S
C837        H849   1.082       .  S
C838        H850   1.082       .  S
C839        C925   1.490       .  S
C840        C853   1.494       .  S
C841        C894   1.493       .  S
C842        C938   1.484       .  S
C853        H855   1.086       .  S
C853        C854   1.342       .  D
C854        H856   1.087       .  S
C857        H859   1.088       .  S
C857        C858   1.344       .  D
C858        H860   1.085       .  S
C861        H863   1.086       .  S
C861        C862   1.343       .  D
C862        H864   1.087       .  S
C865        H867   1.086       .  S
C865        C866   1.341       .  D
C866        H868   1.087       .  S
C869        H871   1.086       .  S
C869        C870   1.343       .  D
C870        H872   1.087       .  S
C873        H875   1.086       .  S
C873        C874   1.345       .  D
C874        H876   1.087       .  S
C877        H879   1.087       .  S
C877        C878   1.344       .  D
C878        H880   1.086       .  S
C881        H883   1.087       .  S
C881        C882   1.344       .  D
C882        H884   1.085       .  S
C885        H887   1.087       .  S
C885        C886   1.342       .  D
C886        H888   1.086       .  S
C889        H891   1.086       .  S
C889        C890   1.343       .  D
C890        H892   1.087       .  S
C893        H895   1.087       .  S
C893        C894   1.347       .  D
C894        H896   1.086       .  S
C897        H899   1.087       .  S
C897        C898   1.341       .  D
C898        H900   1.083       .  S
C901        H903   1.085       .  S
C901        C902   1.344       .  D
C902        H904   1.087       .  S
C905        H907   1.085       .  S
C905        C906   1.342       .  D
C906        H908   1.088       .  S
C909        H911   1.087       .  S
C909        C910   1.345       .  D
C910        H912   1.086       .  S
C913        H915   1.084       .  S
C913        C914   1.344       .  D
C914        H916   1.087       .  S
C917        H919   1.087       .  S
C917        C918   1.344       .  D
C918        H920   1.087       .  S
C921        H923   1.086       .  S
C921        C922   1.341       .  D
C922        H924   1.086       .  S
C925        H927   1.085       .  S
C925        C926   1.343       .  D
C926        H928   1.087       .  S
C929        H931   1.087       .  S
C929        C930   1.343       .  D
C930        H932   1.086       .  S
C933        H935   1.088       .  S
C933        C934   1.344       .  D
C934        H936   1.085       .  S
C937        H939   1.086       .  S
C937        C938   1.340       .  D
C938        H940   1.083       .  S
C941        H943   1.087       .  S
C941        C942   1.345       .  D
C942        H944   1.087       .  S
C945        H947   1.087       .  S
C945        C946   1.344       .  D
C946        H948   1.084       .  S
C949        H951   1.088       .  S
C949        C950   1.339       .  D
C950        H952   1.086       .  S
C953        H955   1.087       .  S
C953        C954   1.349       .  D
C954        H956   1.087       .  S
C957        H959   1.087       .  S
C957        C958   1.342       .  D
C958        H960   1.087       .  S
C961        H963   1.087       .  S
C961        C962   1.343       .  D
C962        H964   1.087       .  S
C965        H967   1.087       .  S
C965        C966   1.349       .  D
C966        H968   1.087       .  S
C969        H971   1.087       .  S
C969        C970   1.344       .  D
C970        H972   1.087       .  S
C973        H975   1.087       .  S
C973        C974   1.343       .  D
C974        H976   1.087       .  S
C977        H979   1.088       .  S
C977        C978   1.342       .  D
C978        H980   1.087       .  S
O981       Zr993   2.446       .  S
O981        C983   1.290       .  A
O982      Zr1019   2.409       .  S
O982        C983   1.282       .  A
C983       C1467   1.474       .  S
O984       Zr996   2.431       .  S
O984        C986   1.287       .  A
O985      Zr1020   2.413       .  S
O985        C986   1.283       .  A
C986       C1447   1.469       .  S
O987       Zr996   2.440       .  S
O987        C989   1.286       .  A
O988      Zr1019   2.433       .  S
O988        C989   1.288       .  A
C989       C1459   1.476       .  S
O990       Zr993   2.437       .  S
O990        C992   1.287       .  A
O991      Zr1020   2.455       .  S
O991        C992   1.292       .  A
C992       C1456   1.485       .  S
Zr993       O994   2.435       .  S
Zr993       O995   2.435       .  S
Zr993       O999   2.370       .  S
Zr993      O1000   2.376       .  S
Zr993      O1023   2.376       .  S
Zr993      O1025   2.370       .  S
O994       H1037   0.990       .  S
O995       H1036   0.990       .  S
O995       H1040   0.990       .  S
Zr996       O997   2.435       .  S
Zr996       O998   2.434       .  S
Zr996      O1000   2.377       .  S
Zr996       O999   2.371       .  S
Zr996      O1024   2.367       .  S
Zr996      O1026   2.363       .  S
O997       H1038   0.990       .  S
O997       H1041   0.990       .  S
O998       H1031   0.990       .  S
O999      Zr1019   2.376       .  S
O1000     Zr1020   2.390       .  S
O1000      H1027   0.966       .  S
O1001     Zr1013   2.438       .  S
O1001      C1003   1.284       .  A
O1002     Zr1020   2.425       .  S
O1002      C1003   1.287       .  A
C1003      C1443   1.468       .  S
O1004     Zr1016   2.460       .  S
O1004      C1006   1.291       .  A
O1005     Zr1019   2.409       .  S
O1005      C1006   1.284       .  A
C1006      C1451   1.471       .  S
O1007     Zr1016   2.454       .  S
O1007      C1009   1.292       .  A
O1008     Zr1020   2.431       .  S
O1008      C1009   1.287       .  A
C1009      C1440   1.486       .  S
O1010     Zr1013   2.440       .  S
O1010      C1012   1.287       .  A
O1011     Zr1019   2.427       .  S
O1011      C1012   1.286       .  A
C1012      C1463   1.468       .  S
Zr1013     O1014   2.437       .  S
Zr1013     O1015   2.435       .  S
Zr1013     O1021   2.376       .  S
Zr1013     O1022   2.369       .  S
Zr1013     O1025   2.371       .  S
Zr1013     O1023   2.372       .  S
O1014      H1034   0.990       .  S
O1014      H1039   0.990       .  S
O1015      H1035   0.990       .  S
Zr1016     O1017   2.435       .  S
Zr1016     O1018   2.436       .  S
Zr1016     O1022   2.365       .  S
Zr1016     O1021   2.377       .  S
Zr1016     O1026   2.368       .  S
Zr1016     O1024   2.372       .  S
O1017      H1033   0.990       .  S
O1018      H1032   0.990       .  S
O1018      H1042   0.990       .  S
Zr1019     O1022   2.381       .  S
Zr1019     O1024   2.383       .  S
Zr1019     O1025   2.385       .  S
Zr1020     O1021   2.392       .  S
Zr1020     O1023   2.383       .  S
Zr1020     O1026   2.383       .  S
O1021      H1029   0.965       .  S
O1024      H1028   0.967       .  S
O1025      H1030   0.967       .  S
C1043      C1044   1.541       .  S
C1043      C1049   1.541       .  S
C1043      C1047   1.543       .  S
C1043      C1439   1.517       .  S
C1044      H1051   1.085       .  S
C1044      C1045   1.369       .  D
C1045      C1046   1.534       .  S
C1045      C1431   1.484       .  S
C1046      C1050   1.529       .  S
C1046      C1048   1.541       .  S
C1046      H1052   1.108       .  S
C1047      H1053   1.086       .  S
C1047      C1048   1.369       .  D
C1048      C1427   1.491       .  S
C1049      H1054   1.084       .  S
C1049      C1050   1.366       .  D
C1050      C1435   1.480       .  S
C1055      C1056   1.538       .  S
C1055      C1061   1.545       .  S
C1055      C1059   1.540       .  S
C1055      C1444   1.508       .  S
C1056      H1063   1.086       .  S
C1056      C1057   1.366       .  D
C1057      C1058   1.532       .  S
C1057      C1416   1.477       .  S
C1058      C1062   1.530       .  S
C1058      C1060   1.528       .  S
C1058      H1064   1.112       .  S
C1059      H1065   1.085       .  S
C1059      C1060   1.364       .  D
C1060      C1423   1.473       .  S
C1061      H1066   1.086       .  S
C1061      C1062   1.369       .  D
C1062      C1419   1.479       .  S
C1067      C1068   1.535       .  S
C1067      C1073   1.539       .  S
C1067      C1071   1.533       .  S
C1067      C1448   1.501       .  S
C1068      H1075   1.086       .  S
C1068      C1069   1.364       .  D
C1069      C1070   1.543       .  S
C1069      C1411   1.477       .  S
C1070      C1074   1.534       .  S
C1070      C1072   1.542       .  S
C1070      H1076   1.110       .  S
C1071      H1077   1.087       .  S
C1071      C1072   1.357       .  D
C1072      C1404   1.475       .  S
C1073      H1078   1.085       .  S
C1073      C1074   1.367       .  D
C1074      C1407   1.483       .  S
C1079      C1080   1.547       .  S
C1079      C1085   1.554       .  S
C1079      C1083   1.546       .  S
C1079      C1455   1.534       .  S
C1080      H1087   1.086       .  S
C1080      C1081   1.367       .  D
C1081      C1082   1.528       .  S
C1081      C1399   1.482       .  S
C1082      C1086   1.527       .  S
C1082      C1084   1.527       .  S
C1082      H1088   1.112       .  S
C1083      H1089   1.086       .  S
C1083      C1084   1.369       .  D
C1084      C1396   1.477       .  S
C1085      H1090   1.080       .  S
C1085      C1086   1.368       .  D
C1086      C1392   1.483       .  S
N1091      C1096   1.352       .  A
N1091      H1123   1.036       .  S
N1092      C1589   1.352   1_545  A
N1092      C1100   1.353       .  A
N1093      C1098   1.354   1_455  A
N1093      H1124   1.037       .  S
N1094      C1591   1.351   1_545  A
N1094      C1102   1.352       .  A
C1095      C1103   1.386       .  A
C1095      C1111   1.415       .  A
C1096      C1112   1.414       .  A
C1096      C1104   1.387       .  A
C1097      C1105   1.386       .  A
C1097      C1114   1.416       .  A
C1098      C1113   1.416       .  A
C1098      C1106   1.386       .  A
C1099      N1582   1.352       .  A
C1099      C1111   1.411       .  A
C1099      C1107   1.386       .  A
C1100      C1114   1.413       .  A
C1100      C1108   1.387       .  A
C1101      N1584   1.352       .  A
C1101      C1109   1.388       .  A
C1101      C1112   1.416       .  A
C1102      C1110   1.387       .  A
C1102      C1113   1.412       .  A
C1103      H1115   1.082       .  S
C1104      H1116   1.082       .  S
C1105      H1117   1.082       .  S
C1106      H1118   1.082       .  S
C1107      C1598   1.373       .  A
C1107      H1119   1.083       .  S
C1108      C1597   1.371   1_545  A
C1108      H1120   1.082       .  S
C1109      C1600   1.370       .  A
C1109      H1121   1.082       .  S
C1110      C1599   1.371   1_545  A
C1110      H1122   1.082       .  S
C1111      C1408   1.485       .  S
C1112      C1436   1.484       .  S
C1113      C1420   1.488       .  S
C1114      C1391   1.488       .  S
C1125      C1126   1.540       .  S
C1125      C1131   1.539       .  S
C1125      C1129   1.540       .  S
C1125      C1452   1.513       .  S
C1126      H1133   1.086       .  S
C1126      C1127   1.368       .  D
C1127      C1128   1.536       .  S
C1127      C1383   1.485       .  S
C1128      C1132   1.530       .  S
C1128      C1130   1.541       .  S
C1128      H1134   1.110       .  S
C1129      H1135   1.086       .  S
C1129      C1130   1.365       .  D
C1130      C1380   1.486       .  S
C1131      H1136   1.084       .  S
C1131      C1132   1.366       .  D
C1132      C1387   1.478       .  S
C1137      C1138   1.549       .  S
C1137      C1143   1.538       .  S
C1137      C1141   1.538       .  S
C1137      C1460   1.514       .  S
C1138      H1145   1.086       .  S
C1138      C1139   1.368       .  D
C1139      C1140   1.528       .  S
C1139      C1375   1.481       .  S
C1140      C1144   1.539       .  S
C1140      C1142   1.538       .  S
C1140      H1146   1.111       .  S
C1141      H1147   1.086       .  S
C1141      C1142   1.360       .  D
C1142      C1368   1.478       .  S
C1143      H1148   1.086       .  S
C1143      C1144   1.366       .  D
C1144      C1371   1.478       .  S
N1149      C1154   1.354   1_556  A
N1149      C1153   1.355       .  A
N1149      H1181   1.028       .  S
N1150      C1157   1.354   1_455  A
N1151      C1156   1.355   1_556  A
N1151      C1155   1.354       .  A
N1151      H1182   1.041       .  S
N1152      C1159   1.354   1_455  A
C1153      C1161   1.387       .  A
C1153      C1169   1.424       .  A
C1154      C1170   1.422       .  A
C1154      C1162   1.388       .  A
C1155      C1163   1.387       .  A
C1155      C1172   1.414       .  A
C1156      C1171   1.415       .  A
C1156      C1164   1.387       .  A
C1157      C1169   1.420       .  A
C1157      C1165   1.388       .  A
C1158      C1172   1.406       .  A
C1158      C1166   1.385       .  A
C1159      C1167   1.387       .  A
C1159      C1170   1.420       .  A
C1160      C1168   1.387       .  A
C1160      C1171   1.409       .  A
C1161      C1162   1.373   1_556  A
C1161      H1173   1.082       .  S
C1162      H1174   1.079       .  S
C1163      C1164   1.371   1_556  A
C1163      H1175   1.082       .  S
C1164      H1176   1.081       .  S
C1165      H1177   1.082       .  S
C1166      H1178   1.083       .  S
C1167      H1179   1.082       .  S
C1168      H1180   1.083       .  S
C1169      C1432   1.494       .  S
C1170      C1379   1.489       .  S
C1171      C1367   1.482       .  S
C1172      C1403   1.481       .  S
C1183      C1184   1.538       .  S
C1183      C1189   1.533       .  S
C1183      C1187   1.531       .  S
C1183      C1468   1.506       .  S
C1184      H1191   1.086       .  S
C1184      C1185   1.367       .  D
C1185      C1186   1.548       .  S
C1185      C1359   1.492       .  S
C1186      C1190   1.535       .  S
C1186      C1188   1.550       .  S
C1186      H1192   1.108       .  S
C1187      H1193   1.087       .  S
C1187      C1188   1.361       .  D
C1188      C1356   1.485       .  S
C1189      H1194   1.086       .  S
C1189      C1190   1.365       .  D
C1190      C1364   1.479       .  S
N1195      C1200   1.352   1_565  A
N1195      C1689   1.352       .  A
N1195      H1227   1.038       .  S
N1196      C1203   1.352   1_455  A
N1197      C1202   1.355   1_565  A
N1197      C1691   1.354       .  A
N1197      H1228   1.036       .  S
N1198      C1205   1.350       .  A
C1199      N1685   1.351       .  A
C1199      C1207   1.389       .  A
C1199      C1215   1.411       .  A
C1200      C1216   1.414       .  A
C1200      C1208   1.388       .  A
C1201      N1687   1.355       .  A
C1201      C1209   1.388       .  A
C1201      C1218   1.418       .  A
C1202      C1217   1.416       .  A
C1202      C1210   1.387       .  A
C1203      C1215   1.413       .  A
C1203      C1211   1.385       .  A
C1204      C1218   1.415       .  A
C1204      C1212   1.386       .  A
C1205      C1213   1.386       .  A
C1205      C1216   1.409       .  A
C1206      C1214   1.387       .  A
C1206      C1217   1.410       .  A
C1207      C1698   1.371       .  A
C1207      H1219   1.083       .  S
C1208      C1697   1.374   1_545  A
C1208      H1220   1.082       .  S
C1209      C1700   1.376       .  A
C1209      H1221   1.082       .  S
C1210      C1699   1.374   1_545  A
C1210      H1222   1.082       .  S
C1211      H1223   1.082       .  S
C1212      H1224   1.082       .  S
C1213      H1225   1.082       .  S
C1214      H1226   1.082       .  S
C1215      C1388   1.478       .  S
C1216      C1351   1.478       .  S
C1217      C1363   1.485       .  S
C1218      C1376   1.491       .  S
N1229      C1234   1.355       .  A
N1229      C1233   1.355   1_554  A
N1229      H1261   1.039       .  S
N1230      C1727   1.355       .  A
N1230      C1238   1.355   1_565  A
N1231      C1236   1.355       .  A
N1231      C1235   1.352   1_554  A
N1231      H1262   1.038       .  S
N1232      C1729   1.353       .  A
N1232      C1240   1.354   1_565  A
C1233      C1241   1.388       .  A
C1233      C1249   1.417       .  A
C1234      C1250   1.415       .  A
C1234      C1242   1.386       .  A
C1235      C1243   1.387       .  A
C1235      C1252   1.418       .  A
C1236      C1251   1.415       .  A
C1236      C1244   1.387       .  A
C1237      N1720   1.352       .  A
C1237      C1249   1.413       .  A
C1237      C1245   1.386       .  A
C1238      C1252   1.418       .  A
C1238      C1246   1.387       .  A
C1239      N1722   1.352       .  A
C1239      C1247   1.386       .  A
C1239      C1250   1.410       .  A
C1240      C1248   1.386       .  A
C1240      C1251   1.417       .  A
C1241      C1242   1.371   1_556  A
C1241      H1253   1.081       .  S
C1242      H1254   1.082       .  S
C1243      C1244   1.376   1_556  A
C1243      H1255   1.082       .  S
C1244      H1256   1.080       .  S
C1245      C1736   1.372       .  A
C1245      H1257   1.083       .  S
C1246      C1735   1.375   1_545  A
C1246      H1258   1.082       .  S
C1247      C1738   1.370       .  A
C1247      H1259   1.082       .  S
C1248      C1737   1.373   1_545  A
C1248      H1260   1.082       .  S
C1249      C1412   1.484       .  S
C1250      C1372   1.483       .  S
C1251      C1360   1.493       .  S
C1252      C1395   1.495       .  S
N1263      C1268   1.352   1_554  A
N1263      C1267   1.354       .  A
N1263      H1295   1.038       .  S
N1264      C1271   1.352       .  A
N1265      C1270   1.352   1_554  A
N1265      C1269   1.350       .  A
N1265      H1296   1.034       .  S
N1266      C1273   1.353       .  A
C1267      C1275   1.387       .  A
C1267      C1283   1.415       .  A
C1268      C1284   1.415       .  A
C1268      C1276   1.388       .  A
C1269      C1277   1.386       .  A
C1269      C1286   1.410       .  A
C1270      C1285   1.415       .  A
C1270      C1278   1.387       .  A
C1271      C1283   1.409       .  A
C1271      C1279   1.385       .  A
C1272      C1286   1.418       .  A
C1272      C1280   1.386       .  A
C1273      C1281   1.386       .  A
C1273      C1284   1.411       .  A
C1274      C1282   1.386       .  A
C1274      C1285   1.416       .  A
C1275      C1276   1.368   1_554  A
C1275      H1287   1.082       .  S
C1276      H1288   1.082       .  S
C1277      C1278   1.377   1_554  A
C1277      H1289   1.083       .  S
C1278      H1290   1.082       .  S
C1279      H1291   1.082       .  S
C1280      H1292   1.081       .  S
C1281      H1293   1.082       .  S
C1282      H1294   1.082       .  S
C1283      C1348   1.486       .  S
C1284      C1424   1.484       .  S
C1285      C1400   1.491       .  S
C1286      C1355   1.488       .  S
C1297      C1298   1.538       .  S
C1297      C1303   1.538       .  S
C1297      C1301   1.542       .  S
C1297      C1464   1.512       .  S
C1298      H1305   1.085       .  S
C1298      C1299   1.366       .  D
C1299      C1300   1.535       .  S
C1299      C1347   1.480       .  S
C1300      C1304   1.532       .  S
C1300      C1302   1.533       .  S
C1300      H1306   1.112       .  S
C1301      H1307   1.086       .  S
C1301      C1302   1.368       .  D
C1302      C1344   1.481       .  S
C1303      H1308   1.084       .  S
C1303      C1304   1.367       .  D
C1304      C1352   1.480       .  S
N1309      C1314   1.352       .  A
N1309      C1313   1.353   1_554  A
N1309      H1341   1.037       .  S
N1310      C1807   1.353       .  A
N1310      C1318   1.354       .  A
N1311      C1316   1.353       .  A
N1311      C1315   1.354   1_554  A
N1311      H1342   1.037       .  S
N1312      C1809   1.356       .  A
N1312      C1320   1.355       .  A
C1313      C1321   1.388       .  A
C1313      C1329   1.416       .  A
C1314      C1330   1.414       .  A
C1314      C1322   1.386       .  A
C1315      C1323   1.387       .  A
C1315      C1332   1.416       .  A
C1316      C1331   1.418       .  A
C1316      C1324   1.387       .  A
C1317      N1800   1.351   1_545  A
C1317      C1329   1.413       .  A
C1317      C1325   1.387       .  A
C1318      C1332   1.416       .  A
C1318      C1326   1.388       .  A
C1319      N1802   1.354   1_545  A
C1319      C1327   1.387       .  A
C1319      C1330   1.416       .  A
C1320      C1328   1.386       .  A
C1320      C1331   1.418       .  A
C1321      C1322   1.376   1_556  A
C1321      H1333   1.082       .  S
C1322      H1334   1.082       .  S
C1323      C1324   1.376   1_556  A
C1323      H1335   1.080       .  S
C1324      H1336   1.082       .  S
C1325      C1816   1.374   1_545  A
C1325      H1337   1.083       .  S
C1326      C1815   1.372       .  A
C1326      H1338   1.082       .  S
C1327      C1818   1.374   1_545  A
C1327      H1339   1.082       .  S
C1328      C1817   1.373       .  A
C1328      H1340   1.082       .  S
C1329      C1415   1.484       .  S
C1330      C1343   1.492       .  S
C1331      C1384   1.494       .  S
C1332      C1428   1.489       .  S
C1343      H1345   1.086       .  S
C1343      C1344   1.345       .  D
C1344      H1346   1.087       .  S
C1347      H1349   1.088       .  S
C1347      C1348   1.346       .  D
C1348      H1350   1.084       .  S
C1351      H1353   1.084       .  S
C1351      C1352   1.341       .  D
C1352      H1354   1.087       .  S
C1355      H1357   1.086       .  S
C1355      C1356   1.338       .  D
C1356      H1358   1.087       .  S
C1359      H1361   1.086       .  S
C1359      C1360   1.345       .  D
C1360      H1362   1.084       .  S
C1363      H1365   1.086       .  S
C1363      C1364   1.346       .  D
C1364      H1366   1.087       .  S
C1367      H1369   1.087       .  S
C1367      C1368   1.338       .  D
C1368      H1370   1.087       .  S
C1371      H1373   1.086       .  S
C1371      C1372   1.341       .  D
C1372      H1374   1.087       .  S
C1375      H1377   1.087       .  S
C1375      C1376   1.343       .  D
C1376      H1378   1.086       .  S
C1379      H1381   1.086       .  S
C1379      C1380   1.343       .  D
C1380      H1382   1.087       .  S
C1383      H1385   1.087       .  S
C1383      C1384   1.347       .  D
C1384      H1386   1.086       .  S
C1387      H1389   1.087       .  S
C1387      C1388   1.340       .  D
C1388      H1390   1.084       .  S
C1391      H1393   1.086       .  S
C1391      C1392   1.343       .  D
C1392      H1394   1.087       .  S
C1395      H1397   1.086       .  S
C1395      C1396   1.345       .  D
C1396      H1398   1.087       .  S
C1399      H1401   1.088       .  S
C1399      C1400   1.344       .  D
C1400      H1402   1.086       .  S
C1403      H1405   1.086       .  S
C1403      C1404   1.335       .  D
C1404      H1406   1.087       .  S
C1407      H1409   1.087       .  S
C1407      C1408   1.344       .  D
C1408      H1410   1.085       .  S
C1411      H1413   1.086       .  S
C1411      C1412   1.340       .  D
C1412      H1414   1.087       .  S
C1415      H1417   1.086       .  S
C1415      C1416   1.342       .  D
C1416      H1418   1.087       .  S
C1419      H1421   1.087       .  S
C1419      C1420   1.340       .  D
C1420      H1422   1.086       .  S
C1423      H1425   1.088       .  S
C1423      C1424   1.343       .  D
C1424      H1426   1.085       .  S
C1427      H1429   1.086       .  S
C1427      C1428   1.347       .  D
C1428      H1430   1.083       .  S
C1431      H1433   1.087       .  S
C1431      C1432   1.344       .  D
C1432      H1434   1.085       .  S
C1435      H1437   1.087       .  S
C1435      C1436   1.344       .  D
C1436      H1438   1.084       .  S
C1439      H1441   1.087       .  S
C1439      C1440   1.346       .  D
C1440      H1442   1.087       .  S
C1443      H1445   1.087       .  S
C1443      C1444   1.340       .  D
C1444      H1446   1.088       .  S
C1447      H1449   1.087       .  S
C1447      C1448   1.342       .  D
C1448      H1450   1.087       .  S
C1451      H1453   1.086       .  S
C1451      C1452   1.347       .  D
C1452      H1454   1.087       .  S
C1455      H1457   1.086       .  S
C1455      C1456   1.349       .  D
C1456      H1458   1.079       .  S
C1459      H1461   1.087       .  S
C1459      C1460   1.342       .  D
C1460      H1462   1.088       .  S
C1463      H1465   1.087       .  S
C1463      C1464   1.344       .  D
C1464      H1466   1.087       .  S
C1467      H1469   1.087       .  S
C1467      C1468   1.340       .  D
C1468      H1470   1.087       .  S
O1471     Zr1483   2.436       .  S
O1471      C1473   1.288       .  A
O1472     Zr1509   2.408       .  S
O1472      C1473   1.282       .  A
C1473      C1957   1.465       .  S
O1474     Zr1486   2.436       .  S
O1474      C1476   1.288       .  A
O1475     Zr1510   2.435       .  S
O1475      C1476   1.288       .  A
C1476      C1937   1.482       .  S
O1477     Zr1486   2.459       .  S
O1477      C1479   1.291       .  A
O1478     Zr1509   2.417       .  S
O1478      C1479   1.284       .  A
C1479      C1949   1.483       .  S
O1480     Zr1483   2.445       .  S
O1480      C1482   1.288       .  A
O1481     Zr1510   2.431       .  S
O1481      C1482   1.287       .  A
C1482      C1946   1.475       .  S
Zr1483     O1484   2.435       .  S
Zr1483     O1485   2.437       .  S
Zr1483     O1489   2.376       .  S
Zr1483     O1490   2.369       .  S
Zr1483     O1513   2.368       .  S
Zr1483     O1515   2.369       .  S
O1484      H1527   0.990       .  S
O1485      H1526   0.990       .  S
O1485      H1530   0.990       .  S
Zr1486     O1487   2.435       .  S
Zr1486     O1488   2.435       .  S
Zr1486     O1490   2.380       .  S
Zr1486     O1489   2.366       .  S
Zr1486     O1514   2.373       .  S
Zr1486     O1516   2.380       .  S
O1487      H1528   0.990       .  S
O1487      H1531   0.990       .  S
O1488      H1521   0.990       .  S
O1489     Zr1509   2.376       .  S
O1490     Zr1510   2.384       .  S
O1490      H1517   0.966       .  S
O1491     Zr1503   2.452       .  S
O1491      C1493   1.290       .  A
O1492     Zr1510   2.427       .  S
O1492      C1493   1.287       .  A
C1493      C1933   1.479       .  S
O1494     Zr1506   2.444       .  S
O1494      C1496   1.287       .  A
O1495     Zr1509   2.426       .  S
O1495      C1496   1.286       .  A
C1496      C1941   1.473       .  S
O1497     Zr1506   2.444       .  S
O1497      C1499   1.289       .  A
O1498     Zr1510   2.420       .  S
O1498      C1499   1.284       .  A
C1499      C1930   1.477       .  S
O1500     Zr1503   2.482       .  S
O1500      C1502   1.297       .  A
O1501     Zr1509   2.395       .  S
O1501      C1502   1.280       .  A
C1502      C1953   1.480       .  S
Zr1503     O1504   2.434       .  S
Zr1503     O1505   2.434       .  S
Zr1503     O1511   2.375       .  S
Zr1503     O1512   2.371       .  S
Zr1503     O1515   2.362       .  S
Zr1503     O1513   2.381       .  S
O1504      H1524   0.990       .  S
O1504      H1529   0.990       .  S
O1505      H1525   0.990       .  S
Zr1506     O1507   2.434       .  S
Zr1506     O1508   2.434       .  S
Zr1506     O1512   2.372       .  S
Zr1506     O1511   2.369       .  S
Zr1506     O1516   2.373       .  S
Zr1506     O1514   2.376       .  S
O1507      H1523   0.990       .  S
O1508      H1522   0.990       .  S
O1508      H1532   0.990       .  S
Zr1509     O1512   2.381       .  S
Zr1509     O1514   2.377       .  S
Zr1509     O1515   2.387       .  S
Zr1510     O1511   2.391       .  S
Zr1510     O1513   2.387       .  S
Zr1510     O1516   2.384       .  S
O1511      H1519   0.965       .  S
O1514      H1518   0.966       .  S
O1515      H1520   0.965       .  S
C1533      C1534   1.543       .  S
C1533      C1539   1.537       .  S
C1533      C1537   1.537       .  S
C1533      C1929   1.508       .  S
C1534      H1541   1.085       .  S
C1534      C1535   1.371       .  D
C1535      C1536   1.535       .  S
C1535      C1921   1.484       .  S
C1536      C1540   1.530       .  S
C1536      C1538   1.542       .  S
C1536      H1542   1.110       .  S
C1537      H1543   1.086       .  S
C1537      C1538   1.362       .  D
C1538      C1917   1.484       .  S
C1539      H1544   1.086       .  S
C1539      C1540   1.364       .  D
C1540      C1925   1.472       .  S
C1545      C1546   1.544       .  S
C1545      C1551   1.544       .  S
C1545      C1549   1.547       .  S
C1545      C1934   1.526       .  S
C1546      H1553   1.086       .  S
C1546      C1547   1.369       .  D
C1547      C1548   1.529       .  S
C1547      C1906   1.480       .  S
C1548      C1552   1.530       .  S
C1548      C1550   1.531       .  S
C1548      H1554   1.112       .  S
C1549      H1555   1.086       .  S
C1549      C1550   1.369       .  D
C1550      C1913   1.481       .  S
C1551      H1556   1.081       .  S
C1551      C1552   1.363       .  D
C1552      C1909   1.479       .  S
C1557      C1558   1.540       .  S
C1557      C1563   1.540       .  S
C1557      C1561   1.540       .  S
C1557      C1938   1.512       .  S
C1558      H1565   1.086       .  S
C1558      C1559   1.368       .  D
C1559      C1560   1.543       .  S
C1559      C1901   1.491       .  S
C1560      C1564   1.530       .  S
C1560      C1562   1.539       .  S
C1560      H1566   1.107       .  S
C1561      H1567   1.086       .  S
C1561      C1562   1.363       .  D
C1562      C1894   1.484       .  S
C1563      H1568   1.086       .  S
C1563      C1564   1.365       .  D
C1564      C1897   1.477       .  S
C1569      C1570   1.546       .  S
C1569      C1575   1.539       .  S
C1569      C1573   1.544       .  S
C1569      C1945   1.517       .  S
C1570      H1577   1.085       .  S
C1570      C1571   1.370       .  D
C1571      C1572   1.533       .  S
C1571      C1889   1.486       .  S
C1572      C1576   1.525       .  S
C1572      C1574   1.532       .  S
C1572      H1578   1.112       .  S
C1573      H1579   1.084       .  S
C1573      C1574   1.372       .  D
C1574      C1886   1.483       .  S
C1575      H1580   1.086       .  S
C1575      C1576   1.360       .  D
C1576      C1882   1.469       .  S
N1581      C1586   1.351   1_455  A
N1581      H1613   1.037       .  S
N1582      C1590   1.352       .  A
N1583      C1588   1.353       .  A
N1583      H1614   1.034       .  S
N1584      C1592   1.352       .  A
C1585      C1593   1.387       .  A
C1585      C1601   1.417       .  A
C1586      C1602   1.411       .  A
C1586      C1594   1.387       .  A
C1587      C1595   1.387       .  A
C1587      C1604   1.410       .  A
C1588      C1603   1.417       .  A
C1588      C1596   1.386       .  A
C1589      C1601   1.414       .  A
C1589      C1597   1.387       .  A
C1590      C1604   1.413       .  A
C1590      C1598   1.387       .  A
C1591      C1599   1.387       .  A
C1591      C1602   1.411       .  A
C1592      C1600   1.387       .  A
C1592      C1603   1.413       .  A
C1593      H1605   1.082       .  S
C1594      H1606   1.082       .  S
C1595      H1607   1.083       .  S
C1596      H1608   1.082       .  S
C1597      H1609   1.082       .  S
C1598      H1610   1.082       .  S
C1599      H1611   1.083       .  S
C1600      H1612   1.082       .  S
C1601      C1898   1.486       .  S
C1602      C1926   1.478       .  S
C1603      C1910   1.484       .  S
C1604      C1881   1.481       .  S
C1615      C1616   1.542       .  S
C1615      C1621   1.543       .  S
C1615      C1619   1.545       .  S
C1615      C1942   1.515       .  S
C1616      H1623   1.086       .  S
C1616      C1617   1.368       .  D
C1617      C1618   1.531       .  S
C1617      C1873   1.478       .  S
C1618      C1622   1.528       .  S
C1618      C1620   1.530       .  S
C1618      H1624   1.112       .  S
C1619      H1625   1.086       .  S
C1619      C1620   1.367       .  D
C1620      C1870   1.481       .  S
C1621      H1626   1.084       .  S
C1621      C1622   1.366       .  D
C1622      C1877   1.478       .  S
C1627      C1628   1.538       .  S
C1627      C1633   1.543       .  S
C1627      C1631   1.541       .  S
C1627      C1950   1.516       .  S
C1628      H1635   1.086       .  S
C1628      C1629   1.365       .  D
C1629      C1630   1.531       .  S
C1629      C1865   1.478       .  S
C1630      C1634   1.540       .  S
C1630      C1632   1.541       .  S
C1630      H1636   1.108       .  S
C1631      H1637   1.086       .  S
C1631      C1632   1.365       .  D
C1632      C1858   1.486       .  S
C1633      H1638   1.086       .  S
C1633      C1634   1.369       .  D
C1634      C1861   1.488       .  S
N1639      C1644   1.355       .  A
N1639      C1643   1.355   1_554  A
N1639      H1671   1.040       .  S
N1640      C1647   1.354   1_455  A
N1641      C1646   1.352       .  A
N1641      C1645   1.352   1_554  A
N1641      H1672   1.037       .  S
N1642      C1649   1.353       .  A
C1643      C1651   1.389       .  A
C1643      C1659   1.419       .  A
C1644      C1660   1.414       .  A
C1644      C1652   1.386       .  A
C1645      C1653   1.386       .  A
C1645      C1662   1.412       .  A
C1646      C1661   1.412       .  A
C1646      C1654   1.386       .  A
C1647      C1659   1.415       .  A
C1647      C1655   1.386       .  A
C1648      C1662   1.417       .  A
C1648      C1656   1.387       .  A
C1649      C1657   1.385       .  A
C1649      C1660   1.413       .  A
C1650      C1658   1.387       .  A
C1650      C1661   1.418       .  A
C1651      C1652   1.372   1_556  A
C1651      H1663   1.081       .  S
C1652      H1664   1.082       .  S
C1653      C1654   1.376   1_556  A
C1653      H1665   1.082       .  S
C1654      H1666   1.082       .  S
C1655      H1667   1.082       .  S
C1656      H1668   1.082       .  S
C1657      H1669   1.082       .  S
C1658      H1670   1.081       .  S
C1659      C1922   1.493       .  S
C1660      C1869   1.491       .  S
C1661      C1857   1.491       .  S
C1662      C1893   1.487       .  S
C1673      C1674   1.536       .  S
C1673      C1679   1.536       .  S
C1673      C1677   1.531       .  S
C1673      C1958   1.499       .  S
C1674      H1681   1.086       .  S
C1674      C1675   1.363       .  D
C1675      C1676   1.541       .  S
C1675      C1849   1.474       .  S
C1676      C1680   1.535       .  S
C1676      C1678   1.547       .  S
C1676      H1682   1.109       .  S
C1677      H1683   1.087       .  S
C1677      C1678   1.358       .  D
C1678      C1846   1.481       .  S
C1679      H1684   1.086       .  S
C1679      C1680   1.366       .  D
C1680      C1854   1.479       .  S
N1685      C1690   1.351       .  A
N1685      H1717   1.036       .  S
N1686      C1693   1.351       .  A
N1687      C1692   1.355       .  A
N1687      H1718   1.039       .  S
N1688      C1695   1.351   1_455  A
C1689      C1697   1.388       .  A
C1689      C1705   1.414       .  A
C1690      C1706   1.409       .  A
C1690      C1698   1.388       .  A
C1691      C1699   1.388       .  A
C1691      C1708   1.418       .  A
C1692      C1707   1.416       .  A
C1692      C1700   1.387       .  A
C1693      C1705   1.410       .  A
C1693      C1701   1.386       .  A
C1694      C1708   1.413       .  A
C1694      C1702   1.387       .  A
C1695      C1703   1.385       .  A
C1695      C1706   1.410       .  A
C1696      C1704   1.387       .  A
C1696      C1707   1.411       .  A
C1697      H1709   1.082       .  S
C1698      H1710   1.083       .  S
C1699      H1711   1.082       .  S
C1700      H1712   1.082       .  S
C1701      H1713   1.082       .  S
C1702      H1714   1.082       .  S
C1703      H1715   1.083       .  S
C1704      H1716   1.082       .  S
C1705      C1878   1.480       .  S
C1706      C1841   1.474       .  S
C1707      C1853   1.486       .  S
C1708      C1866   1.484       .  S
N1719      C1724   1.356       .  A
N1719      C1723   1.353   1_554  A
N1719      H1751   1.035       .  S
N1720      C1728   1.354       .  A
N1721      C1726   1.354       .  A
N1721      C1725   1.355   1_554  A
N1721      H1752   1.038       .  S
N1722      C1730   1.351       .  A
C1723      C1731   1.386       .  A
C1723      C1739   1.416       .  A
C1724      C1740   1.421       .  A
C1724      C1732   1.389       .  A
C1725      C1733   1.389       .  A
C1725      C1742   1.419       .  A
C1726      C1741   1.416       .  A
C1726      C1734   1.387       .  A
C1727      C1739   1.420       .  A
C1727      C1735   1.387       .  A
C1728      C1742   1.414       .  A
C1728      C1736   1.386       .  A
C1729      C1737   1.388       .  A
C1729      C1740   1.418       .  A
C1730      C1738   1.387       .  A
C1730      C1741   1.410       .  A
C1731      C1732   1.375   1_556  A
C1731      H1743   1.083       .  S
C1732      H1744   1.081       .  S
C1733      C1734   1.370   1_556  A
C1733      H1745   1.081       .  S
C1734      H1746   1.082       .  S
C1735      H1747   1.082       .  S
C1736      H1748   1.082       .  S
C1737      H1749   1.082       .  S
C1738      H1750   1.083       .  S
C1739      C1902   1.490       .  S
C1740      C1862   1.489       .  S
C1741      C1850   1.481       .  S
C1742      C1885   1.490       .  S
N1753      C1758   1.352   1_554  A
N1753      C1757   1.354       .  A
N1753      H1785   1.034       .  S
N1754      C1761   1.354       .  A
N1755      C1760   1.355   1_554  A
N1755      C1759   1.355       .  A
N1755      H1786   1.038       .  S
N1756      C1763   1.355       .  A
C1757      C1765   1.386       .  A
C1757      C1773   1.417       .  A
C1758      C1774   1.418       .  A
C1758      C1766   1.387   1_556  A
C1759      C1767   1.387       .  A
C1759      C1776   1.415       .  A
C1760      C1775   1.419       .  A
C1760      C1768   1.388       .  A
C1761      C1773   1.414       .  A
C1761      C1769   1.385       .  A
C1762      C1776   1.407       .  A
C1762      C1770   1.385       .  A
C1763      C1771   1.387       .  A
C1763      C1774   1.419       .  A
C1764      C1772   1.386       .  A
C1764      C1775   1.416       .  A
C1765      C1766   1.377       .  A
C1765      H1777   1.082       .  S
C1766      H1778   1.082   1_554  S
C1767      C1768   1.372   1_554  A
C1767      H1779   1.083       .  S
C1768      H1780   1.082       .  S
C1769      H1781   1.083       .  S
C1770      H1782   1.082       .  S
C1771      H1783   1.082       .  S
C1772      H1784   1.082       .  S
C1773      C1838   1.489       .  S
C1774      C1914   1.493       .  S
C1775      C1890   1.492       .  S
C1776      C1845   1.481       .  S
C1787      C1788   1.546       .  S
C1787      C1793   1.526       .  S
C1787      C1791   1.551       .  S
C1787      C1954   1.517       .  S
C1788      H1795   1.085       .  S
C1788      C1789   1.370       .  D
C1789      C1790   1.531       .  S
C1789      C1837   1.484       .  S
C1790      C1794   1.534       .  S
C1790      C1792   1.532       .  S
C1790      H1796   1.112       .  S
C1791      H1797   1.085       .  S
C1791      C1792   1.374       .  D
C1792      C1834   1.486       .  S
C1793      H1798   1.086       .  S
C1793      C1794   1.361       .  D
C1794      C1842   1.474       .  S
N1799      C1804   1.354       .  A
N1799      C1803   1.353   1_554  A
N1799      H1831   1.037       .  S
N1800      C1808   1.353       .  A
N1801      C1806   1.352       .  A
N1801      C1805   1.351   1_554  A
N1801      H1832   1.037       .  S
N1802      C1810   1.354       .  A
C1803      C1811   1.388   1_556  A
C1803      C1819   1.418       .  A
C1804      C1820   1.418       .  A
C1804      C1812   1.386       .  A
C1805      C1813   1.385       .  A
C1805      C1822   1.408       .  A
C1806      C1821   1.416       .  A
C1806      C1814   1.388       .  A
C1807      C1819   1.415       .  A
C1807      C1815   1.387       .  A
C1808      C1822   1.414       .  A
C1808      C1816   1.386       .  A
C1809      C1817   1.387       .  A
C1809      C1820   1.418       .  A
C1810      C1818   1.387       .  A
C1810      C1821   1.416       .  A
C1811      C1812   1.379       .  A
C1811      H1823   1.082   1_554  S
C1812      H1824   1.082       .  S
C1813      C1814   1.375   1_556  A
C1813      H1825   1.083       .  S
C1814      H1826   1.082       .  S
C1815      H1827   1.083       .  S
C1816      H1828   1.082       .  S
C1817      H1829   1.082       .  S
C1818      H1830   1.082       .  S
C1819      C1905   1.489       .  S
C1820      C1833   1.499       .  S
C1821      C1874   1.491       .  S
C1822      C1918   1.484       .  S
C1833      H1835   1.086       .  S
C1833      C1834   1.344       .  D
C1834      H1836   1.087       .  S
C1837      H1839   1.087       .  S
C1837      C1838   1.343       .  D
C1838      H1840   1.085       .  S
C1841      H1843   1.085       .  S
C1841      C1842   1.342       .  D
C1842      H1844   1.087       .  S
C1845      H1847   1.084       .  S
C1845      C1846   1.334       .  D
C1846      H1848   1.087       .  S
C1849      H1851   1.086       .  S
C1849      C1850   1.339       .  D
C1850      H1852   1.087       .  S
C1853      H1855   1.086       .  S
C1853      C1854   1.345       .  D
C1854      H1856   1.087       .  S
C1857      H1859   1.087       .  S
C1857      C1858   1.343       .  D
C1858      H1860   1.086       .  S
C1861      H1863   1.087       .  S
C1861      C1862   1.346       .  D
C1862      H1864   1.084       .  S
C1865      H1867   1.087       .  S
C1865      C1866   1.343       .  D
C1866      H1868   1.086       .  S
C1869      H1871   1.086       .  S
C1869      C1870   1.343       .  D
C1870      H1872   1.087       .  S
C1873      H1875   1.087       .  S
C1873      C1874   1.344       .  D
C1874      H1876   1.086       .  S
C1877      H1879   1.087       .  S
C1877      C1878   1.340       .  D
C1878      H1880   1.084       .  S
C1881      H1883   1.087       .  S
C1881      C1882   1.343       .  D
C1882      H1884   1.087       .  S
C1885      H1887   1.084       .  S
C1885      C1886   1.343       .  D
C1886      H1888   1.087       .  S
C1889      H1891   1.088       .  S
C1889      C1890   1.345       .  D
C1890      H1892   1.085       .  S
C1893      H1895   1.086       .  S
C1893      C1894   1.342       .  D
C1894      H1896   1.087       .  S
C1897      H1899   1.087       .  S
C1897      C1898   1.341       .  D
C1898      H1900   1.086       .  S
C1901      H1903   1.087       .  S
C1901      C1902   1.344       .  D
C1902      H1904   1.083       .  S
C1905      H1907   1.086       .  S
C1905      C1906   1.342       .  D
C1906      H1908   1.087       .  S
C1909      H1911   1.087       .  S
C1909      C1910   1.344       .  D
C1910      H1912   1.086       .  S
C1913      H1915   1.087       .  S
C1913      C1914   1.344       .  D
C1914      H1916   1.086       .  S
C1917      H1919   1.087       .  S
C1917      C1918   1.339       .  D
C1918      H1920   1.085       .  S
C1921      H1923   1.087       .  S
C1921      C1922   1.346       .  D
C1922      H1924   1.085       .  S
C1925      H1927   1.087       .  S
C1925      C1926   1.339       .  D
C1926      H1928   1.086       .  S
C1929      H1931   1.087       .  S
C1929      C1930   1.344       .  D
C1930      H1932   1.087       .  S
C1933      H1935   1.080       .  S
C1933      C1934   1.352       .  D
C1934      H1936   1.086       .  S
C1937      H1939   1.087       .  S
C1937      C1938   1.347       .  D
C1938      H1940   1.087       .  S
C1941      H1943   1.087       .  S
C1941      C1942   1.345       .  D
C1942      H1944   1.087       .  S
C1945      H1947   1.087       .  S
C1945      C1946   1.347       .  D
C1946      H1948   1.087       .  S
C1949      H1951   1.087       .  S
C1949      C1950   1.344       .  D
C1950      H1952   1.087       .  S
C1953      H1955   1.087       .  S
C1953      C1954   1.336       .  D
C1954      H1956   1.087       .  S
C1957      H1959   1.088       .  S
C1957      C1958   1.340       .  D
C1958      H1960   1.087       .  S
