geometry optimzed in LAMMPS
_audit_creation_date              2020-11-30 
_audit_creation_method            'lammps2cif' 
_symmetry_space_group_name_H-M    'P1' 
_symmetry_Int_Tables_number       1 
_symmetry_cell_setting            triclinic 
loop_ 
_symmetry_equiv_pos_as_xyz 
  x,y,z 
_cell_length_a                    33.119660361225044 
_cell_length_b                    33.64888486393695 
_cell_length_c                    33.43482650670103 
_cell_angle_alpha                 89.66884998897649 
_cell_angle_beta                  88.9356120323628 
_cell_angle_gamma                 89.2491678266785 
loop_ 
_atom_site_label 
_atom_site_type_symbol 
_atom_site_fract_x 
_atom_site_fract_y 
_atom_site_fract_z 
_atom_site_charge 
C1          C  0.87912209  0.25976620  0.50059966    -0.02620
C2          C  0.87172940  0.51303880  0.25336831    -0.02620
C3          C  0.88344614  0.50566898  0.74454987    -0.02620
C4          C  0.86948024  0.75056695  0.50112379    -0.02620
O5          O  0.86275125  0.50091762  0.43450519    -0.71910
O6          O  0.87549059  0.51053050  0.54606564    -0.72120
O7          O  0.87332382  0.45071012  0.49486370    -0.71980
O8          O  0.86536491  0.56192129  0.48497495    -0.71990
O9          O  0.80129242  0.56028295  0.50000566    -0.71950
O10         O  0.80800549  0.44653448  0.49781319    -0.71970
O11         O  0.81146663  0.50171084  0.55606646    -0.71910
O12         O  0.79748025  0.50421001  0.44243522    -0.72100
V13         V  0.86786352  0.50609889  0.49034798     1.35240
V14         V  0.80553059  0.50330508  0.49898577     1.35170
C15         C  0.82813564  0.50132246  0.41938767     0.77330
C16         C  0.84627768  0.50615448  0.57046674     0.77390
C17         C  0.84233055  0.42948414  0.49557952     0.77260
C18         C  0.83261092  0.58032921  0.49199475     0.77220
C19         C  0.24870864  0.88058128  0.50156810    -0.02620
C20         C  0.50919719  0.87946184  0.25402126    -0.02620
C21         C  0.49621756  0.88295811  0.73772044    -0.02620
C22         C  0.73506934  0.87680468  0.50028781    -0.02620
O23         O  0.49984877  0.85763690  0.43950312    -0.71910
O24         O  0.48788792  0.86167513  0.54993409    -0.72120
O25         O  0.55061604  0.85766330  0.50001125    -0.71980
O26         O  0.43810997  0.85927251  0.48988466    -0.71990
O27         O  0.43559083  0.79542475  0.49933273    -0.71950
O28         O  0.55059565  0.79309422  0.49650983    -0.71970
O29         O  0.49317642  0.79735143  0.55484489    -0.71910
O30         O  0.49192851  0.79364311  0.43978919    -0.72100
V31         V  0.49418504  0.85761321  0.49484025     1.35240
V32         V  0.49310998  0.79570101  0.49741142     1.35170
C33         C  0.49436391  0.82625013  0.42049450     0.77330
C34         C  0.48872985  0.83105989  0.57139854     0.77390
C35         C  0.56986866  0.82509543  0.49923017     0.77260
C36         C  0.41744632  0.82836636  0.49579539     0.77220
C37         C  0.50294687  0.26335893  0.86638454    -0.02620
C38         C  0.25206002  0.50709137  0.86439928    -0.02620
C39         C  0.74590854  0.50398944  0.86869444    -0.02620
C40         C  0.49380097  0.74860760  0.86319096    -0.02620
O41         O  0.44852405  0.50314740  0.86270677    -0.71910
O42         O  0.55981440  0.51206264  0.85606459    -0.72120
O43         O  0.49800342  0.56389590  0.85719211    -0.71980
O44         O  0.50834445  0.45141197  0.86008700    -0.71990
O45         O  0.50422730  0.44981913  0.79526918    -0.71950
O46         O  0.49606061  0.56239001  0.79225235    -0.71970
O47         O  0.55849155  0.50888630  0.79110906    -0.71910
O48         O  0.44316968  0.50311234  0.79837832    -0.72100
V49         V  0.50377180  0.50763551  0.85759368     1.35240
V50         V  0.50077328  0.50611228  0.79530246     1.35170
C51         C  0.42647242  0.50231386  0.83280451     0.77330
C52         C  0.57838473  0.51146584  0.82305015     0.77390
C53         C  0.49439789  0.58212949  0.82421861     0.77260
C54         C  0.50593891  0.43155325  0.82823409     0.77220
C55         C  0.36680412  0.01054851  0.76342658    -0.02620
C56         C  0.37360602  0.75082570  0.00203815    -0.02620
C57         C  0.37711747  0.24806025  0.00066387    -0.02620
C58         C  0.38340844  0.00856252  0.25148606    -0.02620
O59         O  0.29731016  0.99830962  0.95378027    -0.71910
O60         O  0.31062632  0.00346687  0.06633764    -0.72120
O61         O  0.30441751  0.05812116  0.00699428    -0.71980
O62         O  0.30517718  0.94277471  0.01358565    -0.71990
O63         O  0.36899011  0.94453626  0.99947119    -0.71950
O64         O  0.36963861  0.05465441  0.00294623    -0.71970
O65         O  0.37524742  0.99740696  0.05670999    -0.71910
O66         O  0.36259867  0.00140017  0.94645564    -0.72100
V67         V  0.30517274  0.00043135  0.00995608     1.35240
V68         V  0.36758455  0.99944621  0.00160108     1.35170
C69         C  0.32817037  0.00155620  0.93133841     0.77330
C70         C  0.34572421  0.00189023  0.08049721     0.77390
C71         C  0.33811422  0.07591119  0.00471781     0.77260
C72         C  0.33862386  0.92425766  0.00804615     0.77220
C73         C  0.99983559  0.63961761  0.75850154    -0.02620
C74         C  0.75683653  0.63587623  0.99632353    -0.02620
C75         C  0.23565872  0.63118068  0.99194245    -0.02620
C76         C  0.98383241  0.65020138  0.24111649    -0.02620
O77         O  0.00263871  0.72570779  0.94241348    -0.71910
O78         O  0.99367410  0.73509991  0.05685908    -0.72120
O79         O  0.05576509  0.73430516  0.00162642    -0.71980
O80         O  0.94006659  0.72610030  0.99572542    -0.71990
O81         O  0.94727407  0.66388807  0.01123054    -0.71950
O82         O  0.05908456  0.66972215  0.99994143    -0.71970
O83         O  0.00730686  0.67192862  0.06131927    -0.71910
O84         O  0.99899492  0.66190094  0.95051722    -0.72100
V85         V  0.99798323  0.72962167  0.99956174     1.35240
V86         V  0.00296831  0.66826771  0.00571387     1.35170
C87         C  0.00237594  0.69132213  0.92719398     0.77330
C88         C  0.00105734  0.70471271  0.07839112     0.77390
C89         C  0.07678054  0.70254113  0.99939144     0.77260
C90         C  0.92430710  0.69230742  0.00146579     0.77220
C91         C  0.62114944  0.75663775  0.98936031    -0.02620
C92         C  0.62228572  0.00823014  0.75438191    -0.02620
C93         C  0.62363958  0.25273928  0.00012876    -0.02620
C94         C  0.62918507  0.01220270  0.25846024    -0.02620
O95         O  0.69577704  0.00537787  0.94580147    -0.71910
O96         O  0.69374858  0.00290220  0.06144222    -0.72120
O97         O  0.68984477  0.94700741  0.00247233    -0.71980
O98         O  0.69896881  0.06111547  0.00449782    -0.71990
O99         O  0.63341955  0.06519845  0.00431534    -0.71950
O100        O  0.62504532  0.95477305  0.00409585    -0.71970
O101        O  0.62868361  0.00951044  0.06049181    -0.71910
O102        O  0.63042624  0.01049384  0.94780461    -0.72100
V103        V  0.69364741  0.00422716  0.00363579     1.35240
V104        V  0.63096690  0.00987556  0.00412487     1.35170
C105        C  0.66274292  0.00758237  0.92722522     0.77330
C106        C  0.66039581  0.00590514  0.08069477     0.77390
C107        C  0.65499861  0.93154594  0.00249315     0.77260
C108        C  0.66693962  0.08224239  0.00491863     0.77220
C109        C  0.25846066  0.51213417  0.12737186    -0.02620
C110        C  0.49784006  0.26896221  0.13238631    -0.02620
C111        C  0.50088584  0.74995075  0.12995681    -0.02620
C112        C  0.74833506  0.50980549  0.12077728    -0.02620
O113        O  0.44405259  0.50989979  0.21124098    -0.71910
O114        O  0.56058297  0.50813649  0.20728774    -0.72120
O115        O  0.50339272  0.56581475  0.21196366    -0.71980
O116        O  0.50197995  0.45307397  0.20738548    -0.71990
O117        O  0.49495553  0.45672108  0.14286807    -0.71950
O118        O  0.50832546  0.56740152  0.14701320    -0.71970
O119        O  0.55802971  0.50517259  0.14248641    -0.71910
O120        O  0.44482419  0.51852181  0.14687608    -0.72100
V121        V  0.50249774  0.50933506  0.20847252     1.35240
V122        V  0.50157158  0.51199169  0.14617150     1.35170
C123        C  0.42462439  0.51472035  0.17908599     0.77330
C124        C  0.57879872  0.50499723  0.17369283     0.77390
C125        C  0.50695756  0.58559489  0.17989868     0.77260
C126        C  0.49687198  0.43610186  0.17433051     0.77220
C127        C  0.75485775  0.37830474  0.99803603    -0.02620
C128        C  0.00291307  0.37025652  0.76332891    -0.02620
C129        C  0.25163000  0.38402996  0.99962468    -0.02620
C130        C  0.99926082  0.38291400  0.24035874    -0.02620
O131        O  0.00483061  0.29506612  0.94807029    -0.71910
O132        O  0.00403166  0.29999205  0.06072411    -0.72120
O133        O  0.94625704  0.30325343  0.00413244    -0.71980
O134        O  0.06334163  0.29564718  0.00362392    -0.71990
O135        O  0.06441006  0.36000196  0.99819522    -0.71950
O136        O  0.95264533  0.36704613  0.00464816    -0.71970
O137        O  0.01102555  0.36410928  0.05780546    -0.71910
O138        O  0.00574956  0.35963210  0.94459846    -0.72100
V139        V  0.00472302  0.29950792  0.00426415     1.35240
V140        V  0.00830128  0.36128901  0.00138238     1.35170
C141        C  0.00464924  0.32625972  0.92727160     0.77330
C142        C  0.00853880  0.33249920  0.07834258     0.77390
C143        C  0.92986824  0.33776191  0.00347282     0.77260
C144        C  0.08340729  0.32759073  0.99950206     0.77220
C145        C  0.76087287  0.99562534  0.62745390    -0.02620
C146        C  0.99159816  0.77281214  0.63285091    -0.02620
C147        C  0.99693647  0.25006992  0.62857251    -0.02620
C148        C  0.24799800  0.01450797  0.62723789    -0.02620
O149        O  0.05851181  0.00959169  0.70596913    -0.71910
O150        O  0.94290038  0.01020672  0.72217625    -0.72120
O151        O  0.00166300  0.95357830  0.71770990    -0.71980
O152        O  0.99985740  0.06659550  0.71097347    -0.71990
O153        O  0.99783226  0.06205368  0.64619369    -0.71950
O154        O  0.98809881  0.95156456  0.65430681    -0.71970
O155        O  0.93705406  0.01247942  0.65756559    -0.71910
O156        O  0.04905739  0.00064562  0.64278801    -0.72100
V157        V  0.00063398  0.00994254  0.71327755     1.35240
V158        V  0.99317703  0.00674019  0.65161162     1.35170
C159        C  0.07331668  0.00478719  0.67094526     0.77330
C160        C  0.92048593  0.01235154  0.69182893     0.77390
C161        C  0.99398872  0.93373111  0.68689481     0.77260
C162        C  0.99978115  0.08327348  0.67697760     0.77220
C163        C  0.13155116  0.26513956  0.50419371    -0.02620
C164        C  0.11652672  0.51904467  0.24877875    -0.02620
C165        C  0.12138451  0.50512347  0.74049778    -0.02620
C166        C  0.11736793  0.75682530  0.50028268    -0.02620
O167        O  0.11956498  0.51428365  0.44601697    -0.71910
O168        O  0.13169397  0.51350616  0.55693474    -0.72120
O169        O  0.12700614  0.56838041  0.50135993    -0.71980
O170        O  0.12365612  0.45860339  0.50209206    -0.71990
O171        O  0.18877315  0.45410686  0.49994071    -0.71950
O172        O  0.19129597  0.56779063  0.48776128    -0.71970
O173        O  0.19692321  0.51624020  0.55046263    -0.71910
O174        O  0.18397411  0.50666502  0.43682986    -0.72100
V175        V  0.12701238  0.51351312  0.50141468     1.35240
V176        V  0.18944515  0.51103090  0.49380627     1.35170
C177        C  0.14910287  0.51093498  0.42204819     0.77330
C178        C  0.16567854  0.51678042  0.57291702     0.77390
C179        C  0.15847615  0.58716891  0.49254434     0.77260
C180        C  0.15477295  0.43718197  0.50346564     0.77220
C181        C  0.26804689  0.14567674  0.50987667    -0.02620
C182        C  0.50526784  0.14186596  0.26435554    -0.02620
C183        C  0.49240397  0.13553414  0.73819201    -0.02620
C184        C  0.75913066  0.12709659  0.49897409    -0.02620
O185        O  0.50490898  0.16115585  0.43755759    -0.71910
O186        O  0.50966528  0.14646662  0.54924590    -0.72120
O187        O  0.45156641  0.15966811  0.49783501    -0.71980
O188        O  0.56249341  0.14529063  0.48915174    -0.71990
O189        O  0.57309411  0.20744199  0.50040968    -0.71950
O190        O  0.45754028  0.22381878  0.50125856    -0.71970
O191        O  0.51468271  0.21042229  0.55662996    -0.71910
O192        O  0.51696327  0.22412539  0.44475499    -0.72100
V193        V  0.50740670  0.15453752  0.49353757     1.35240
V194        V  0.51545525  0.21548409  0.50061765     1.35170
C195        C  0.51039121  0.19517714  0.42232081     0.77330
C196        C  0.51201928  0.17629534  0.57181510     0.77390
C197        C  0.43516576  0.19341293  0.49940791     0.77260
C198        C  0.58707132  0.17240826  0.49500894     0.77220
C199        C  0.99604958  0.77841058  0.37016313    -0.02620
C200        C  0.77265298  0.00213264  0.37357074    -0.02620
C201        C  0.25672958  0.01252280  0.38564444    -0.02620
C202        C  0.01366226  0.26175004  0.37443859    -0.02620
O203        O  0.06818646  0.01067699  0.35762335    -0.71910
O204        O  0.95512914  0.00966525  0.35202065    -0.72120
O205        O  0.01228628  0.95515783  0.34791996    -0.71980
O206        O  0.00975521  0.06496811  0.36287656    -0.71990
O207        O  0.01422879  0.07588296  0.29919118    -0.71950
O208        O  0.01647120  0.96227921  0.28333048    -0.71970
O209        O  0.95838786  0.01885824  0.28758208    -0.71910
O210        O  0.07371944  0.01951108  0.29337535    -0.72100
V211        V  0.01155702  0.01031935  0.35359423     1.35240
V212        V  0.01573676  0.01900799  0.29183733     1.35170
C213        C  0.09041100  0.01636279  0.32703159     0.77330
C214        C  0.93757783  0.01291996  0.31902364     0.77390
C215        C  0.01394618  0.93965288  0.31381258     0.77260
C216        C  0.01131239  0.08956867  0.33457219     0.77220
C217        C  0.00950457  0.18783588  0.39072369    -0.20430
C218        C  0.00926909  0.21692104  0.35980081    -0.07000
C219        C  0.00078615  0.20220263  0.32058723     0.13870
C220        C  0.00281746  0.16079323  0.31326485    -0.20490
C221        C  0.00941703  0.13296631  0.34390479    -0.07000
C222        C  0.01175115  0.14711151  0.38367860     0.13860
C223        C  0.01787786  0.12035679  0.41967337    -0.23830
H224        H  0.01104156  0.19761371  0.42149911     0.15150
H225        H  0.99799057  0.14994203  0.28328852     0.15170
C226        C  0.98448487  0.22742431  0.28705123    -0.23780
H227        H  0.02090924  0.13736772  0.44782613     0.05390
H228        H  0.04611841  0.10253567  0.41569662     0.08610
H229        H  0.99151491  0.10067758  0.42405890     0.08610
H230        H  0.00907760  0.24287028  0.27091271     0.08600
H231        H  0.96071115  0.24821502  0.29824660     0.08600
H232        H  0.96967261  0.20897831  0.26424920     0.05370
C233        C  0.14310729  0.04546330  0.36606255    -0.20430
C234        C  0.13415153  0.02242980  0.33321909    -0.07000
C235        C  0.16566010  0.00154807  0.31350913     0.13870
C236        C  0.20483284  0.00154202  0.32978252    -0.20490
C237        C  0.21388707  0.02138266  0.36601791    -0.07000
C238        C  0.18015271  0.04263798  0.38505767     0.13860
C239        C  0.17662466  0.05825284  0.42763414    -0.23830
H240        H  0.11858130  0.06212594  0.38048896     0.15150
H241        H  0.22815523  0.98421252  0.31477026     0.15170
C242        C  0.15788955  0.97857138  0.27605945    -0.23780
H243        H  0.14929660  0.04592299  0.44276298     0.05390
H244        H  0.17302503  0.09110054  0.42717132     0.08610
H245        H  0.20105373  0.04955113  0.44742046     0.08610
H246        H  0.14694705  0.99917246  0.25245838     0.08600
H247        H  0.13468037  0.95582004  0.28206372     0.08600
H248        H  0.18567218  0.96333456  0.26456748     0.05370
C249        C  0.82687040  0.03225443  0.33000599    -0.20430
C250        C  0.81559253  0.99860491  0.35355397    -0.07000
C251        C  0.84647258  0.96815768  0.35891530     0.13870
C252        C  0.88236243  0.97060763  0.33655627    -0.20490
C253        C  0.89415529  0.00613397  0.31884604    -0.07000
C254        C  0.86608512  0.03715031  0.31446850     0.13860
C255        C  0.87802024  0.07591069  0.29523499    -0.23830
H256        H  0.80510539  0.05614080  0.32553351     0.15150
H257        H  0.90517219  0.94729856  0.33982011     0.15170
C258        C  0.85001496  0.93706975  0.39184451    -0.23780
H259        H  0.85224124  0.09732440  0.29430332     0.05390
H260        H  0.88883632  0.07049511  0.26409285     0.08610
H261        H  0.90255846  0.08965645  0.31239062     0.08610
H262        H  0.83041948  0.94144433  0.41799382     0.08600
H263        H  0.88051518  0.93825162  0.40515826     0.08600
H264        H  0.84678132  0.90670689  0.37966735     0.05370
C265        C  0.98172602  0.87361951  0.30181860    -0.20430
C266        C  0.01543795  0.89589615  0.31269310    -0.07000
C267        C  0.04598406  0.87719885  0.33441620     0.13870
C268        C  0.03914605  0.83998285  0.35098945    -0.20490
C269        C  0.00272797  0.81844901  0.34586023    -0.07000
C270        C  0.97672278  0.83386287  0.31559311     0.13860
C271        C  0.94419732  0.80930648  0.29735539    -0.23830
H272        H  0.95880582  0.88761171  0.28358937     0.15150
H273        H  0.06358670  0.82859307  0.36869628     0.15170
C274        C  0.08574683  0.89733719  0.34174972    -0.23780
H275        H  0.92498756  0.82732075  0.27707687     0.05390
H276        H  0.92438131  0.79561294  0.32035642     0.08610
H277        H  0.95852697  0.78540234  0.27920213     0.08610
H278        H  0.08119134  0.92493684  0.35929449     0.08600
H279        H  0.10029176  0.90455654  0.31256656     0.08600
H280        H  0.10703805  0.87801194  0.35855176     0.05370
C281        C  0.80300939  0.08684375  0.44926031    -0.20430
C282        C  0.76639972  0.10726360  0.45565964    -0.07000
C283        C  0.73970880  0.10506771  0.42232932     0.13870
C284        C  0.74448742  0.07365627  0.39420367    -0.20490
C285        C  0.77444800  0.04335053  0.39790486    -0.07000
C286        C  0.80605878  0.05275295  0.42528013     0.13860
C287        C  0.84299210  0.02735443  0.43265340    -0.23830
H288        H  0.82810860  0.09405952  0.46719926     0.15150
H289        H  0.72411183  0.07348077  0.36943251     0.15170
C290        C  0.70871656  0.13649937  0.41173055    -0.23780
H291        H  0.83350440  0.99791653  0.44295858     0.05390
H292        H  0.86181073  0.03880235  0.45711198     0.08610
H293        H  0.86333230  0.02659678  0.40612905     0.08610
H294        H  0.70858884  0.16267953  0.43124501     0.08600
H295        H  0.67812043  0.12340098  0.41199936     0.08600
H296        H  0.71531760  0.14776493  0.38104276     0.05370
C297        C  0.68551783  0.11334605  0.49644791    -0.20430
C298        C  0.71454769  0.14269479  0.50332631    -0.07000
C299        C  0.69929485  0.18198667  0.51285245     0.13870
C300        C  0.65808606  0.19078458  0.50761252    -0.20490
C301        C  0.63056716  0.16170146  0.49710767    -0.07000
C302        C  0.64466972  0.12193015  0.49218555     0.13860
C303        C  0.61797256  0.08761841  0.48109121    -0.23830
H304        H  0.69545383  0.08299872  0.49137629     0.15150
H305        H  0.64695666  0.22065379  0.51368775     0.15170
C306        C  0.72208157  0.21540268  0.53196092    -0.23780
H307        H  0.63523671  0.05934194  0.47703965     0.05390
H308        H  0.60304975  0.09404295  0.45224343     0.08610
H309        H  0.59520637  0.08214277  0.50520758     0.08610
H310        H  0.72407916  0.24101555  0.51095658     0.08600
H311        H  0.75236895  0.20744726  0.54224343     0.08600
H312        H  0.70537782  0.22553040  0.55925800     0.05370
C313        C  0.52279825  0.18036718  0.68394337    -0.20430
C314        C  0.49097837  0.15506256  0.69577377    -0.07000
C315        C  0.46050601  0.14839920  0.66630802     0.13870
C316        C  0.47078246  0.15298899  0.62626784    -0.20490
C317        C  0.50614471  0.17152172  0.61458798    -0.07000
C318        C  0.53125006  0.18809268  0.64337458     0.13860
C319        C  0.56798039  0.21152979  0.63138636    -0.23830
H320        H  0.54340541  0.19101707  0.70614952     0.15150
H321        H  0.44936593  0.14456581  0.60365645     0.15170
C322        C  0.41602575  0.14032300  0.67314752    -0.23780
H323        H  0.58519824  0.22086809  0.65785507     0.05390
H324        H  0.55873746  0.23870297  0.61477477     0.08610
H325        H  0.58830087  0.19309669  0.61203965     0.08610
H326        H  0.40507465  0.14497549  0.70365418     0.08600
H327        H  0.40859735  0.10994008  0.66309260     0.08600
H328        H  0.39786991  0.16173780  0.65524080     0.05370
C329        C  0.53926299  0.18476925  0.31591559    -0.20430
C330        C  0.50278553  0.16697992  0.30322328    -0.07000
C331        C  0.46668720  0.17815765  0.32491725     0.13870
C332        C  0.47046264  0.19552022  0.36244203    -0.20490
C333        C  0.50808589  0.20010188  0.37928264    -0.07000
C334        C  0.54281338  0.19867220  0.35495314     0.13860
C335        C  0.58362559  0.20838582  0.37113492    -0.23830
H336        H  0.56619274  0.18319821  0.29706744     0.15150
H337        H  0.44390988  0.20384991  0.37972498     0.15170
C338        C  0.42434185  0.17525140  0.30954284    -0.23780
H339        H  0.60784720  0.20515124  0.34791673     0.05390
H340        H  0.59094250  0.18809344  0.39637509     0.08610
H341        H  0.58339399  0.23952466  0.38192701     0.08610
H342        H  0.40192476  0.19018142  0.32970116     0.08600
H343        H  0.41439083  0.14412266  0.30793158     0.08600
H344        H  0.42227927  0.19106446  0.28066237     0.05370
C345        C  0.25540125  0.08737192  0.40523133    -0.20430
C346        C  0.26678430  0.04785407  0.41557063    -0.07000
C347        C  0.28768313  0.04552955  0.45233923     0.13870
C348        C  0.28977302  0.07834651  0.47771635    -0.20490
C349        C  0.26591415  0.11298419  0.47442108    -0.07000
C350        C  0.25203308  0.11874493  0.43388500     0.13860
C351        C  0.23660667  0.15777182  0.41779219    -0.23830
H352        H  0.24482084  0.09300020  0.37532173     0.15150
H353        H  0.31220531  0.07575318  0.49976158     0.15170
C354        C  0.30934741  0.01036394  0.46821321    -0.23780
H355        H  0.22944238  0.15640282  0.38551616     0.05390
H356        H  0.25987445  0.18083182  0.42049770     0.08610
H357        H  0.20816727  0.16611531  0.43310312     0.08610
H358        H  0.30260702  0.98460667  0.45087654     0.08600
H359        H  0.29980830  0.00523811  0.49959175     0.08600
H360        H  0.34227964  0.01567250  0.46944455     0.05370
C361        C  0.33261119  0.16276729  0.46907849    -0.20430
C362        C  0.30940013  0.16827494  0.50458721    -0.07000
C363        C  0.32638703  0.19409950  0.53376334     0.13870
C364        C  0.36696120  0.20646052  0.52932958    -0.20490
C365        C  0.39088037  0.19448435  0.49657015    -0.07000
C366        C  0.37277520  0.17333067  0.46557962     0.13860
C367        C  0.39537956  0.15818253  0.42907047    -0.23830
H368        H  0.32115828  0.14778803  0.44347823     0.15150
H369        H  0.38096701  0.22291078  0.55303588     0.15170
C370        C  0.30321764  0.20896090  0.56990390    -0.23780
H371        H  0.38180752  0.17115300  0.40175027     0.05390
H372        H  0.39320157  0.12529572  0.42771476     0.08610
H373        H  0.42762247  0.16532585  0.42917695     0.08610
H374        H  0.27554433  0.22492084  0.56044126     0.08600
H375        H  0.32093131  0.23055572  0.58715764     0.08600
H376        H  0.29630098  0.18431262  0.59075288     0.05370
C377        C  0.06281038  0.74810928  0.39832490    -0.20430
C378        C  0.03058781  0.77548171  0.40210180    -0.07000
C379        C  0.03137674  0.80168042  0.43613515     0.13870
C380        C  0.05925677  0.79491484  0.46629550    -0.20490
C381        C  0.09091948  0.76723389  0.46272102    -0.07000
C382        C  0.09557993  0.74856644  0.42433428     0.13860
C383        C  0.13427129  0.72947718  0.40876017    -0.23830
H384        H  0.06426929  0.72733350  0.37399504     0.15150
H385        H  0.05546010  0.81188841  0.49300842     0.15170
C386        C  0.00300602  0.83680743  0.44309051    -0.23780
H387        H  0.14203858  0.74249019  0.37903803     0.05390
H388        H  0.13031762  0.69699742  0.40510067     0.08610
H389        H  0.16043379  0.73508132  0.42784366     0.08610
H390        H  0.97309493  0.82690811  0.45363109     0.08600
H391        H  0.00086916  0.85615703  0.41654278     0.08600
H392        H  0.01384753  0.85660191  0.46698824     0.05370
C393        C  0.17113341  0.69900715  0.49826149    -0.20430
C394        C  0.13005949  0.71178612  0.49526702    -0.07000
C395        C  0.10158126  0.68190812  0.48385454     0.13870
C396        C  0.11474890  0.64317507  0.47789917    -0.20490
C397        C  0.15362267  0.63042396  0.48743839    -0.07000
C398        C  0.18280683  0.65868803  0.49628649     0.13860
C399        C  0.22580953  0.64657550  0.50437793    -0.23830
H400        H  0.19488155  0.71991569  0.50251545     0.15150
H401        H  0.09276473  0.62157901  0.46855922     0.15170
C402        C  0.05624033  0.68725140  0.47881921    -0.23780
H403        H  0.24477211  0.67259741  0.51111278     0.05390
H404        H  0.23913459  0.63145482  0.47772570     0.08610
H405        H  0.22669482  0.62609209  0.53051069     0.08610
H406        H  0.04823114  0.68080171  0.44744185     0.08600
H407        H  0.04350027  0.71657239  0.48687442     0.08600
H408        H  0.04026371  0.66551872  0.49836597     0.05370
C409        C  0.17613814  0.49326519  0.68307366    -0.20430
C410        C  0.13657310  0.50588613  0.69533769    -0.07000
C411        C  0.11169708  0.52087048  0.66409442     0.13870
C412        C  0.13119342  0.54035986  0.63279622    -0.20490
C413        C  0.16583436  0.52174160  0.61686619    -0.07000
C414        C  0.18968033  0.49839355  0.64288172     0.13860
C415        C  0.22804307  0.47852094  0.62833192    -0.23830
H416        H  0.19541968  0.47750254  0.70373978     0.15150
H417        H  0.11242962  0.55779673  0.61276981     0.15170
C418        C  0.07709440  0.49670397  0.64782281    -0.23780
H419        H  0.24301910  0.46169482  0.65271695     0.05390
H420        H  0.24928339  0.50131545  0.61679796     0.08610
H421        H  0.22132315  0.45739209  0.60402904     0.08610
H422        H  0.05645111  0.51595784  0.63021703     0.08600
H423        H  0.05825604  0.48070946  0.66964471     0.08600
H424        H  0.08963660  0.47350392  0.62737625     0.05370
C425        C  0.17481278  0.51984598  0.35143089    -0.20430
C426        C  0.14213746  0.51347998  0.37809982    -0.07000
C427        C  0.10274693  0.51191455  0.36243687     0.13870
C428        C  0.09758859  0.51598774  0.32144419    -0.20490
C429        C  0.13006334  0.51961736  0.29348101    -0.07000
C430        C  0.16974834  0.52332257  0.30954688     0.13860
C431        C  0.20719707  0.53163902  0.28468299    -0.23830
H432        H  0.20480075  0.52222518  0.36354701     0.15150
H433        H  0.06705212  0.51456458  0.31039137     0.15170
C434        C  0.06523630  0.50460181  0.38782186    -0.23780
H435        H  0.23228406  0.54173838  0.30356356     0.05390
H436        H  0.20184157  0.55572101  0.26261190     0.08610
H437        H  0.21830913  0.50413578  0.27004299     0.08610
H438        H  0.05946360  0.52995720  0.40831242     0.08600
H439        H  0.06876303  0.47645287  0.40498885     0.08600
H440        H  0.03775391  0.50163793  0.36956015     0.05370
C441        C  0.23721049  0.21379406  0.48860151    -0.20430
C442        C  0.23179377  0.17567420  0.50611480    -0.07000
C443        C  0.19125132  0.16606698  0.51639716     0.13870
C444        C  0.16318483  0.19725622  0.52309905    -0.20490
C445        C  0.16799211  0.23509838  0.50472428    -0.07000
C446        C  0.20444810  0.23995506  0.48185702     0.13860
C447        C  0.21045829  0.27076972  0.44933824    -0.23830
H448        H  0.26611019  0.22180551  0.47557031     0.15150
H449        H  0.13495627  0.18952507  0.53768832     0.15170
C450        C  0.17574006  0.12409304  0.51930598    -0.23780
H451        H  0.21424079  0.25539101  0.42019304     0.05390
H452        H  0.23821266  0.28795972  0.45434020     0.08610
H453        H  0.18520413  0.29203291  0.44660956     0.08610
H454        H  0.19931141  0.10148564  0.51317179     0.08600
H455        H  0.15195732  0.12010240  0.49679655     0.08600
H456        H  0.16204777  0.11806027  0.54918604     0.05370
C457        C  0.10552819  0.29930784  0.43774314    -0.20430
C458        C  0.11262405  0.26381991  0.46025019    -0.07000
C459        C  0.10240444  0.22862804  0.43884943     0.13870
C460        C  0.08009206  0.23216669  0.40373362    -0.20490
C461        C  0.05644028  0.26632679  0.39555500    -0.07000
C462        C  0.07614063  0.30193611  0.40763508     0.13860
C463        C  0.07084668  0.34303435  0.38952070    -0.23830
H464        H  0.12152740  0.32621653  0.44398890     0.15150
H465        H  0.07942288  0.20674365  0.38429206     0.15170
C466        C  0.11339541  0.18674429  0.45077656    -0.23780
H467        H  0.04482298  0.34730488  0.37022235     0.05390
H468        H  0.06711112  0.36533071  0.41375088     0.08610
H469        H  0.09849801  0.35068083  0.37198562     0.08610
H470        H  0.10065428  0.17925381  0.48057820     0.08600
H471        H  0.14632727  0.18281148  0.44913072     0.08600
H472        H  0.10112625  0.16426572  0.43021168     0.05370
C473        C  0.18410409  0.36913964  0.51430204    -0.20430
C474        C  0.14998179  0.39376204  0.50968401    -0.07000
C475        C  0.11118389  0.37657375  0.51393704     0.13870
C476        C  0.10824049  0.33557520  0.51606795    -0.20490
C477        C  0.14217622  0.30966586  0.51370770    -0.07000
C478        C  0.18064850  0.32772284  0.51981889     0.13860
C479        C  0.21707626  0.30769423  0.53812107    -0.23830
H480        H  0.21360787  0.38256087  0.51600512     0.15150
H481        H  0.07825692  0.32326299  0.51583532     0.15170
C482        C  0.07182793  0.40006954  0.51516593    -0.23780
H483        H  0.22487638  0.32379913  0.56578430     0.05390
H484        H  0.24366820  0.30927955  0.51762251     0.08610
H485        H  0.21231245  0.27681317  0.54769691     0.08610
H486        H  0.06742057  0.41596175  0.48635554     0.08600
H487        H  0.07170140  0.42125498  0.54051532     0.08600
H488        H  0.04509439  0.38084780  0.51979453     0.05370
C489        C  0.23414320  0.09077082  0.61098391    -0.20430
C490        C  0.25980626  0.05676858  0.60766668    -0.07000
C491        C  0.29743382  0.06510559  0.58705119     0.13870
C492        C  0.30166949  0.10039776  0.56407969    -0.20490
C493        C  0.26813515  0.12390732  0.55342892    -0.07000
C494        C  0.23830061  0.12455614  0.58536973     0.13860
C495        C  0.21633951  0.16154015  0.59983926    -0.23830
H496        H  0.21079840  0.09162253  0.63404775     0.15150
H497        H  0.33068498  0.10688986  0.55023293     0.15170
C498        C  0.33319771  0.03741456  0.58591920    -0.23780
H499        H  0.22545669  0.16777194  0.63095409     0.05390
H500        H  0.18320503  0.15715678  0.60042027     0.08610
H501        H  0.22354592  0.18838034  0.58233520     0.08610
H502        H  0.32425294  0.00877003  0.57330955     0.08600
H503        H  0.34646894  0.03515097  0.61589211     0.08600
H504        H  0.35791876  0.04832903  0.56599205     0.05370
C505        C  0.14606142  0.99488808  0.69041737    -0.20430
C506        C  0.11756645  0.00596966  0.66176913    -0.07000
C507        C  0.13214407  0.01810610  0.62382292     0.13870
C508        C  0.17283775  0.02653981  0.61897317    -0.20490
C509        C  0.20305479  0.01339012  0.64511496    -0.07000
C510        C  0.18810380  0.99368037  0.68107054     0.13860
C511        C  0.21225210  0.96801073  0.70953485    -0.23830
H512        H  0.13521257  0.98302912  0.71883067     0.15150
H513        H  0.18100102  0.04282918  0.59289462     0.15170
C514        C  0.10640551  0.02010550  0.58693983    -0.23780
H515        H  0.19740683  0.93872391  0.71288384     0.05390
H516        H  0.21251112  0.98209130  0.73942532     0.08610
H517        H  0.24333545  0.96069041  0.70022450     0.08610
H518        H  0.08107874  0.04121514  0.59064627     0.08600
H519        H  0.09444178  0.99013360  0.58073826     0.08600
H520        H  0.12378104  0.02951068  0.55986761     0.05370
C521        C  0.06753746  0.27327423  0.60303134    -0.20430
C522        C  0.03138286  0.25370452  0.59521836    -0.07000
C523        C  0.03035023  0.23298561  0.55747015     0.13870
C524        C  0.06153431  0.23817273  0.52879278    -0.20490
C525        C  0.09893003  0.25476783  0.53817621    -0.07000
C526        C  0.10237708  0.26781797  0.57875486     0.13860
C527        C  0.14213714  0.27579211  0.59799155    -0.23830
H528        H  0.07029605  0.29059720  0.62980010     0.15150
H529        H  0.05607448  0.22774183  0.49914010     0.15170
C530        C  0.99792528  0.20394898  0.54606369    -0.23780
H531        H  0.13936953  0.27318097  0.63107548     0.05390
H532        H  0.15214212  0.30642121  0.59166586     0.08610
H533        H  0.16480111  0.25303854  0.58873012     0.08610
H534        H  0.99175013  0.18217192  0.57019856     0.08600
H535        H  0.00702101  0.18622109  0.51936189     0.08600
H536        H  0.96988533  0.21951759  0.53789611     0.05370
C537        C  0.97349337  0.15170713  0.68839445    -0.20430
C538        C  0.00300403  0.12634749  0.67200573    -0.07000
C539        C  0.03394055  0.14203813  0.64788663     0.13870
C540        C  0.03226976  0.18173839  0.63686376    -0.20490
C541        C  0.99929509  0.20721016  0.64752918    -0.07000
C542        C  0.97198602  0.19234491  0.67794559     0.13860
C543        C  0.94187852  0.21806666  0.70088933    -0.23830
H544        H  0.95109343  0.13943033  0.70886403     0.15150
H545        H  0.05750617  0.19187224  0.61897822     0.15170
C546        C  0.06819948  0.11657258  0.63193328    -0.23780
H547        H  0.92195962  0.20006272  0.72076425     0.05390
H548        H  0.92182312  0.23526461  0.68102553     0.08610
H549        H  0.95810285  0.23844969  0.72071098     0.08610
H550        H  0.05572304  0.09650056  0.60949441     0.08600
H551        H  0.08235584  0.09940579  0.65656050     0.08600
H552        H  0.09212770  0.13423589  0.61668785     0.05370
C553        C  0.05501271  0.80061559  0.59345964    -0.20430
C554        C  0.02910116  0.76862651  0.60342874    -0.07000
C555        C  0.03706858  0.73238327  0.58267234     0.13870
C556        C  0.07117757  0.72914442  0.55760893    -0.20490
C557        C  0.09116405  0.76229060  0.54067400    -0.07000
C558        C  0.08340172  0.79916945  0.56122079     0.13860
C559        C  0.10380887  0.83813589  0.55087920    -0.23830
H560        H  0.05117656  0.82877363  0.60812972     0.15150
H561        H  0.08054069  0.69931962  0.55092190     0.15170
C562        C  0.01264333  0.69478562  0.58747445    -0.23780
H563        H  0.08660148  0.86395976  0.56326854     0.05390
H564        H  0.10619226  0.84371733  0.51831881     0.08610
H565        H  0.13398049  0.83908673  0.56443438     0.08610
H566        H  0.98575877  0.69730027  0.60713695     0.08600
H567        H  0.03203109  0.67056089  0.59962878     0.08600
H568        H  0.00179011  0.68559808  0.55779057     0.05370
C569        C  0.95413300  0.87592345  0.67453573    -0.20430
C570        C  0.99049065  0.89078083  0.68738315    -0.07000
C571        C  0.02422198  0.86566950  0.69043639     0.13870
C572        C  0.02164799  0.82682482  0.67612173    -0.20490
C573        C  0.98743883  0.81322465  0.65577114    -0.07000
C574        C  0.95111558  0.83737387  0.65985915     0.13860
C575        C  0.90848032  0.82569219  0.64963863    -0.23830
H576        H  0.92824984  0.89595381  0.67333173     0.15150
H577        H  0.04842799  0.80890057  0.67659509     0.15170
C578        C  0.06374497  0.88078177  0.70552002    -0.23780
H579        H  0.88558725  0.84715295  0.66166030     0.05390
H580        H  0.90026896  0.79702443  0.66346963     0.08610
H581        H  0.90390960  0.82607979  0.61698763     0.08610
H582        H  0.05955115  0.89156983  0.73665308     0.08600
H583        H  0.07451655  0.90560604  0.68623208     0.08600
H584        H  0.08750770  0.85717712  0.70542840     0.05370
C585        C  0.75636481  0.06972796  0.60463573    -0.20430
C586        C  0.76002350  0.02914651  0.59351024    -0.07000
C587        C  0.76712073  0.02284993  0.55159168     0.13870
C588        C  0.76315871  0.05402226  0.52405915    -0.20490
C589        C  0.76154742  0.09449274  0.53420775    -0.07000
C590        C  0.75669516  0.10180613  0.57643906     0.13860
C591        C  0.75101034  0.14282224  0.59327681    -0.23830
H592        H  0.75320252  0.07635717  0.63621418     0.15150
H593        H  0.76128199  0.04511560  0.49353369     0.15170
C594        C  0.78603281  0.98617194  0.53384137    -0.23780
H595        H  0.75066897  0.14268144  0.62649676     0.05390
H596        H  0.72139521  0.15501898  0.58438877     0.08610
H597        H  0.77609539  0.16219896  0.58369694     0.08610
H598        H  0.81104480  0.97457442  0.55172927     0.08600
H599        H  0.76272606  0.96430987  0.53000661     0.08600
H600        H  0.79950589  0.99146161  0.50372857     0.05370
C601        C  0.85971691  0.04344549  0.66767917    -0.20430
C602        C  0.87581845  0.01515270  0.69349285    -0.07000
C603        C  0.85222501  0.98182545  0.70277498     0.13870
C604        C  0.81496317  0.97685045  0.68330260    -0.20490
C605        C  0.80327983  0.00066299  0.64974636    -0.07000
C606        C  0.83248740  0.03063522  0.63916791     0.13860
C607        C  0.84880412  0.03636499  0.59699330    -0.23830
H608        H  0.87846982  0.06881301  0.66028168     0.15150
H609        H  0.79895188  0.95082928  0.69171441     0.15170
C610        C  0.86721092  0.95080620  0.73174924    -0.23780
H611        H  0.87823110  0.05192616  0.59589023     0.05390
H612        H  0.82911524  0.05477932  0.57889529     0.08610
H613        H  0.85524603  0.00734217  0.58300187     0.08610
H614        H  0.87154739  0.96459569  0.76141202     0.08600
H615        H  0.89646427  0.93813599  0.72095292     0.08600
H616        H  0.84560245  0.92604411  0.73549403     0.05370
C617        C  0.03520545  0.32781484  0.27956770    -0.20430
C618        C  0.00088314  0.35341145  0.27754385    -0.07000
C619        C  0.96979809  0.34684731  0.30748899     0.13870
C620        C  0.97579877  0.31822911  0.33777300    -0.20490
C621        C  0.00997107  0.29274913  0.33951180    -0.07000
C622        C  0.04038730  0.29828006  0.30925516     0.13860
C623        C  0.07872137  0.27332260  0.30703065    -0.23830
H624        H  0.05904682  0.33127651  0.25730181     0.15150
H625        H  0.95217489  0.31578349  0.36017466     0.15170
C626        C  0.92822112  0.36626008  0.30815976    -0.23780
H627        H  0.09574037  0.27836229  0.27856122     0.05390
H628        H  0.07201417  0.24121597  0.30860736     0.08610
H629        H  0.09933072  0.28117596  0.33131175     0.08610
H630        H  0.91337176  0.36324573  0.27898949     0.08600
H631        H  0.92977378  0.39738551  0.31813131     0.08600
H632        H  0.90720563  0.35196349  0.32998244     0.05370
C633        C  0.06240831  0.41649933  0.27164539    -0.20430
C634        C  0.03518113  0.41428111  0.23991716    -0.07000
C635        C  0.04197197  0.44198919  0.20744217     0.13870
C636        C  0.07403391  0.46889573  0.20864244    -0.20490
C637        C  0.09421685  0.47711042  0.24397110    -0.07000
C638        C  0.09370984  0.44435801  0.27219276     0.13860
C639        C  0.12769881  0.43279487  0.29986630    -0.23830
H640        H  0.06044900  0.39606823  0.29655593     0.15150
H641        H  0.08283829  0.48400567  0.18134870     0.15170
C642        C  0.01631482  0.44566421  0.17067953    -0.23780
H643        H  0.13659147  0.40131311  0.29431934     0.05390
H644        H  0.11744343  0.43509565  0.33156169     0.08610
H645        H  0.15567784  0.44951395  0.29506592     0.08610
H646        H  0.99158462  0.42444896  0.16967335     0.08600
H647        H  0.03541428  0.44103631  0.14341550     0.08600
H648        H  0.00268861  0.47596726  0.16932614     0.05370
C649        C  0.98286101  0.31589129  0.14677290    -0.20430
C650        C  0.01192417  0.33371394  0.12179576    -0.07000
C651        C  0.04491788  0.35190593  0.13923881     0.13870
C652        C  0.04317129  0.35909112  0.18005834    -0.20490
C653        C  0.00618278  0.35595304  0.20212678    -0.07000
C654        C  0.98075425  0.32523131  0.18786474     0.13860
C655        C  0.95403164  0.29952878  0.21377390    -0.23830
H656        H  0.96082886  0.29627649  0.13408687     0.15150
H657        H  0.07006009  0.37069793  0.19329703     0.15170
C658        C  0.08192584  0.36358980  0.11524701    -0.23780
H659        H  0.96879146  0.26999040  0.21689502     0.05390
H660        H  0.92462029  0.29448759  0.19938093     0.08610
H661        H  0.94780064  0.31179795  0.24353995     0.08610
H662        H  0.07411297  0.38631861  0.09242064     0.08600
H663        H  0.09479790  0.33689561  0.10037950     0.08600
H664        H  0.10554718  0.37630818  0.13436022     0.05370
C665        C  0.18413580  0.36574915  0.96514747    -0.20430
C666        C  0.20857214  0.36257483  0.99949492    -0.07000
C667        C  0.18879021  0.34306901  0.03354213     0.13870
C668        C  0.15128862  0.32398055  0.02892873    -0.20490
C669        C  0.12791277  0.32999507  0.99519374    -0.07000
C670        C  0.14470460  0.35206475  0.96328593     0.13860
C671        C  0.12085119  0.36534397  0.92745163    -0.23830
H672        H  0.19192472  0.38368582  0.94008572     0.15150
H673        H  0.13744589  0.30905070  0.05437772     0.15170
C674        C  0.19989762  0.34618030  0.07732015    -0.23780
H675        H  0.13462513  0.35248188  0.89981326     0.05390
H676        H  0.12122539  0.39828676  0.92496984     0.08610
H677        H  0.08899938  0.35681750  0.92961256     0.08610
H678        H  0.17557597  0.36268162  0.09374762     0.08600
H679        H  0.22809448  0.36117627  0.08397552     0.08600
H680        H  0.20222494  0.31589875  0.09059817     0.05370
C681        C  0.96553651  0.30498207  0.67426722    -0.20430
C682        C  0.99926766  0.27994399  0.66516241    -0.07000
C683        C  0.02968617  0.27883209  0.69528351     0.13870
C684        C  0.02886226  0.30746013  0.72613773    -0.20490
C685        C  0.99783648  0.33629742  0.73111705    -0.07000
C686        C  0.96262007  0.32927233  0.70810750     0.13860
C687        C  0.91953956  0.34104496  0.71949720    -0.23830
H688        H  0.93825308  0.30314341  0.65734674     0.15150
H689        H  0.05307320  0.30679109  0.74697631     0.15170
C690        C  0.06112028  0.24591676  0.69919973    -0.23780
H691        H  0.89989837  0.31461091  0.71754397     0.05390
H692        H  0.90795291  0.36384418  0.69832313     0.08610
H693        H  0.91501294  0.35102954  0.75044317     0.08610
H694        H  0.07838047  0.24009494  0.67134673     0.08600
H695        H  0.04636229  0.21823875  0.70949318     0.08600
H696        H  0.08382217  0.25284066  0.72209111     0.05370
C697        C  0.09162550  0.43711458  0.71936061    -0.20430
C698        C  0.09334948  0.46782914  0.74806059    -0.07000
C699        C  0.07064486  0.46139793  0.78410344     0.13870
C700        C  0.04482525  0.42845685  0.78756215    -0.20490
C701        C  0.03941398  0.40011668  0.75676921    -0.07000
C702        C  0.06438351  0.40521026  0.72160984     0.13860
C703        C  0.06460614  0.37849357  0.68537609    -0.23830
H704        H  0.11215066  0.43767587  0.69393541     0.15150
H705        H  0.02784640  0.42526747  0.81523276     0.15170
C706        C  0.07573588  0.48567138  0.82157875    -0.23780
H707        H  0.08187265  0.39142133  0.65975140     0.05390
H708        H  0.03398587  0.37390892  0.67383161     0.08610
H709        H  0.08037157  0.35018833  0.69228246     0.08610
H710        H  0.04614134  0.49530298  0.83431019     0.08600
H711        H  0.09435543  0.51227932  0.81707406     0.08600
H712        H  0.09044870  0.46678574  0.84457974     0.05370
C713        C  0.04210997  0.32887890  0.86405011    -0.20430
C714        C  0.00534395  0.32397862  0.88368725    -0.07000
C715        C  0.97046721  0.31943103  0.86111784     0.13870
C716        C  0.97250078  0.32849470  0.82000788    -0.20490
C717        C  0.00716568  0.34690534  0.80318977    -0.07000
C718        C  0.04417186  0.34044108  0.82405725     0.13860
C719        C  0.08675496  0.34295075  0.80726728    -0.23830
H720        H  0.06959865  0.32381996  0.88005609     0.15150
H721        H  0.94529011  0.32675025  0.80299339     0.15170
C722        C  0.93103609  0.30787430  0.88074196    -0.23780
H723        H  0.10181708  0.31344979  0.81053971     0.05390
H724        H  0.10369200  0.36433636  0.82530755     0.08610
H725        H  0.09002319  0.35089198  0.77549355     0.08610
H726        H  0.92207442  0.33014242  0.90375714     0.08600
H727        H  0.93441866  0.27830045  0.89526850     0.08600
H728        H  0.90645528  0.30622929  0.85868607     0.05370
C729        C  0.82919634  0.39149314  0.99202074    -0.20430
C730        C  0.79991951  0.36177670  0.99839472    -0.07000
C731        C  0.81543341  0.32229691  0.00715034     0.13870
C732        C  0.85778950  0.31552925  0.00812200    -0.20490
C733        C  0.88556822  0.34578582  0.00077893    -0.07000
C734        C  0.87054339  0.38431691  0.99133625     0.13860
C735        C  0.89708490  0.41895888  0.97935245    -0.23830
H736        H  0.81934111  0.42167258  0.98613825     0.15150
H737        H  0.86950711  0.28611789  0.01509430     0.15170
C738        C  0.79028244  0.28644717  0.01771776    -0.23780
H739        H  0.87933081  0.44544183  0.96964693     0.05390
H740        H  0.91703974  0.41046342  0.95364641     0.08610
H741        H  0.91514905  0.42859234  0.00509887     0.08610
H742        H  0.77911050  0.27252637  0.99022279     0.08600
H743        H  0.76562118  0.29346536  0.03921104     0.08600
H744        H  0.80850363  0.26291047  0.03263243     0.05370
C745        C  0.75390625  0.45066208  0.02142332    -0.20430
C746        C  0.75492701  0.41045343  0.03268242    -0.07000
C747        C  0.76369757  0.40341355  0.07427497     0.13870
C748        C  0.76218368  0.43562149  0.10184982    -0.20490
C749        C  0.75723351  0.47568111  0.08931830    -0.07000
C750        C  0.76034329  0.48150174  0.04743440     0.13860
C751        C  0.77912653  0.51602235  0.02678228    -0.23830
H752        H  0.75520807  0.45946693  0.99056088     0.15150
H753        H  0.76437332  0.42946031  0.13356434     0.15170
C754        C  0.77564278  0.36324092  0.09068194    -0.23780
H755        H  0.80265631  0.50531014  0.00503147     0.05390
H756        H  0.79597137  0.53488806  0.04634788     0.08610
H757        H  0.75566449  0.53242716  0.01016586     0.08610
H758        H  0.80556975  0.35419212  0.07842251     0.08600
H759        H  0.75302485  0.34062358  0.08420067     0.08600
H760        H  0.77866559  0.36379597  0.12369918     0.05370
C761        C  0.68064867  0.47190908  0.13339465    -0.20430
C762        C  0.70570906  0.50450401  0.14232830    -0.07000
C763        C  0.68890370  0.53348673  0.16980363     0.13870
C764        C  0.64812356  0.53115604  0.18254463    -0.20490
C765        C  0.62320547  0.50094233  0.16935013    -0.07000
C766        C  0.64019743  0.47010221  0.14614294     0.13860
C767        C  0.61516378  0.43525764  0.13395636    -0.23830
H768        H  0.69046013  0.44888388  0.11333285     0.15150
H769        H  0.63503270  0.55462009  0.20094554     0.15170
C770        C  0.71163993  0.56860314  0.18542675    -0.23780
H771        H  0.63378172  0.41180111  0.11946087     0.05390
H772        H  0.59152789  0.44473235  0.11271868     0.08610
H773        H  0.60095480  0.42190147  0.16094199     0.08610
H774        H  0.74363128  0.56947942  0.17608255     0.08600
H775        H  0.71091044  0.56782470  0.21864844     0.08600
H776        H  0.69691856  0.59660470  0.17518370     0.05370
C777        C  0.46725004  0.68414917  0.15078632    -0.20430
C778        C  0.50146619  0.70895274  0.15290551    -0.07000
C779        C  0.53326448  0.69488442  0.17805079     0.13870
C780        C  0.53481326  0.65407514  0.18867968    -0.20490
C781        C  0.50309835  0.62889632  0.17889865    -0.07000
C782        C  0.46795411  0.64502188  0.16279330     0.13860
C783        C  0.43154592  0.62019653  0.15553270    -0.23830
H784        H  0.43887722  0.69455974  0.13906692     0.15150
H785        H  0.56089827  0.64177303  0.20368994     0.15170
C786        C  0.56523237  0.72194447  0.19387784    -0.23780
H787        H  0.40539344  0.63791766  0.14460144     0.05390
H788        H  0.42203286  0.60508660  0.18371032     0.08610
H789        H  0.43971603  0.59818986  0.13215429     0.08610
H790        H  0.55103035  0.74355205  0.21479979     0.08600
H791        H  0.58107864  0.73852868  0.16979098     0.08600
H792        H  0.58835811  0.70503222  0.21084168     0.05370
C793        C  0.49993354  0.21436901  0.23616931    -0.20430
C794        C  0.50605619  0.17326589  0.22776760    -0.07000
C795        C  0.50742112  0.16405572  0.18573621     0.13870
C796        C  0.50605029  0.19518393  0.15642873    -0.20490
C797        C  0.49850445  0.23579071  0.16621232    -0.07000
C798        C  0.49051712  0.24322006  0.20765653     0.11460
C799        C  0.46527265  0.27770665  0.22395710    -0.23830
H800        H  0.49771041  0.22542366  0.26616194     0.15150
H801        H  0.50942060  0.18744282  0.12510158     0.15170
C802        C  0.50879688  0.12211206  0.16989282    -0.23780
H803        H  0.45254556  0.27141094  0.25430379     0.05390
H804        H  0.43828244  0.28260672  0.20549273     0.08610
H805        H  0.48338332  0.30477207  0.22751103     0.08610
H806        H  0.50807279  0.09923822  0.19374871     0.08600
H807        H  0.53672629  0.11752993  0.15150968     0.08600
H808        H  0.48244204  0.11720994  0.15058538     0.05370
C809        C  0.46022905  0.33401063  0.15232552    -0.20430
C810        C  0.49683510  0.31150041  0.15193536    -0.07000
C811        C  0.53079381  0.33013243  0.17009479     0.13870
C812        C  0.52830648  0.37043785  0.18024977    -0.20490
C813        C  0.49425048  0.39315001  0.17176633    -0.07000
C814        C  0.45938739  0.37482168  0.15849150     0.13860
C815        C  0.42127232  0.39809118  0.15042321    -0.23830
H816        H  0.43179205  0.32015359  0.14610423     0.15150
H817        H  0.55381888  0.38490153  0.19341539     0.15170
C818        C  0.56919065  0.30906170  0.18150416    -0.23780
H819        H  0.39651730  0.37851075  0.14095835     0.05390
H820        H  0.42674687  0.42024131  0.12627195     0.08610
H821        H  0.41118271  0.41358090  0.17787518     0.08610
H822        H  0.58745770  0.30152321  0.15471333     0.08600
H823        H  0.56217780  0.28336082  0.20095134     0.08600
H824        H  0.58897878  0.32818610  0.19946389     0.05370
C825        C  0.17609780  0.48411980  0.21174632    -0.20430
C826        C  0.15184186  0.51896203  0.21558484    -0.07000
C827        C  0.15946835  0.54838279  0.18529774     0.13870
C828        C  0.18830074  0.54075190  0.15441546    -0.20490
C829        C  0.21875997  0.51093133  0.15618632    -0.07000
C830        C  0.20874516  0.47958228  0.18395573     0.13860
C831        C  0.22719090  0.43829897  0.18371140    -0.23830
H832        H  0.16992344  0.45927431  0.23126749     0.15150
H833        H  0.18419627  0.55768809  0.12755536     0.15170
C834        C  0.13977084  0.58904737  0.18360575    -0.23780
H835        H  0.20396744  0.41661485  0.17500883     0.05390
H836        H  0.23746387  0.43033487  0.21420992     0.08610
H837        H  0.25305634  0.43429150  0.16342807     0.08610
H838        H  0.14022621  0.60360434  0.21311339     0.08600
H839        H  0.10919316  0.58757491  0.17121163     0.08600
H840        H  0.15670199  0.60929641  0.16317423     0.05370
C841        C  0.28382849  0.41238717  0.06459236    -0.20430
C842        C  0.25118608  0.41214063  0.03794713    -0.07000
C843        C  0.21970208  0.44110583  0.04581336     0.13870
C844        C  0.22350715  0.46920533  0.07665633    -0.20490
C845        C  0.25796428  0.47268573  0.10057412    -0.07000
C846        C  0.28850229  0.44209485  0.09449082     0.13860
C847        C  0.32741325  0.43979944  0.11706035    -0.23830
H848        H  0.30777301  0.39062678  0.06015578     0.15150
H849        H  0.19937230  0.49091338  0.08087026     0.15170
C850        C  0.18119834  0.44418594  0.02205570    -0.23780
H851        H  0.34845692  0.41712384  0.10425718     0.05390
H852        H  0.32156421  0.43043803  0.14834986     0.08610
H853        H  0.34383382  0.46813990  0.11524888     0.08610
H854        H  0.16133489  0.41880580  0.02907158     0.08600
H855        H  0.18741955  0.44589516  0.98952029     0.08600
H856        H  0.16318858  0.47127716  0.02962303     0.05370
C857        C  0.31011270  0.49474410  0.18655719    -0.20430
C858        C  0.29702511  0.51929176  0.15431836    -0.07000
C859        C  0.32302878  0.55180147  0.14708646     0.13870
C860        C  0.36427423  0.54498226  0.14946758    -0.20490
C861        C  0.37960493  0.51780600  0.17703576    -0.07000
C862        C  0.35112728  0.49507695  0.19931819     0.13860
C863        C  0.36346979  0.47134203  0.23538896    -0.23830
H864        H  0.28985513  0.47475458  0.20128542     0.15150
H865        H  0.38382534  0.56511831  0.13377191     0.15170
C866        C  0.31061337  0.59361289  0.15819040    -0.23780
H867        H  0.33768959  0.45460096  0.24846530     0.05390
H868        H  0.37459309  0.49179913  0.25853846     0.08610
H869        H  0.38788630  0.44993480  0.22763036     0.08610
H870        H  0.28198860  0.59389630  0.17592290     0.08600
H871        H  0.30909296  0.61264558  0.13111386     0.08600
H872        H  0.33316949  0.60726285  0.17799423     0.05370
C873        C  0.70433359  0.99055790  0.27582070    -0.20430
C874        C  0.66590197  0.00409544  0.28919556    -0.07000
C875        C  0.66285996  0.00382691  0.33237530     0.13870
C876        C  0.69764783  0.00585267  0.35595957    -0.20490
C877        C  0.73754652  0.00188015  0.34094968    -0.07000
C878        C  0.74004977  0.99182742  0.29888726     0.13860
C879        C  0.77838199  0.98138906  0.27559426    -0.23830
H880        H  0.70658150  0.97583141  0.24741565     0.15150
H881        H  0.69293221  0.00889694  0.38785915     0.15170
C882        C  0.62594829  0.99348122  0.35732497    -0.23780
H883        H  0.77207579  0.96760727  0.24629927     0.05390
H884        H  0.79754998  0.95952336  0.29105193     0.08610
H885        H  0.79507835  0.00866974  0.26781879     0.08610
H886        H  0.59906435  0.98868128  0.34041434     0.08600
H887        H  0.61936033  0.01694664  0.37987352     0.08600
H888        H  0.63179953  0.96525990  0.37380611     0.05370
C889        C  0.59580421  0.07020855  0.30110215    -0.20430
C890        C  0.61071287  0.05643444  0.26430407    -0.07000
C891        C  0.60669016  0.08631389  0.23371627     0.13870
C892        C  0.57419124  0.11399207  0.23552707    -0.20490
C893        C  0.54638784  0.11569581  0.26796075    -0.07000
C894        C  0.56261908  0.09721140  0.30422761     0.13860
C895        C  0.54877963  0.10280556  0.34775431    -0.23830
H896        H  0.60667618  0.05738484  0.32797114     0.15150
H897        H  0.57283438  0.13593086  0.21209376     0.15170
C898        C  0.64072161  0.09713230  0.20535814    -0.23780
H899        H  0.54442061  0.07368747  0.36276572     0.05390
H900        H  0.52021349  0.11871949  0.35348179     0.08610
H901        H  0.57283871  0.11812694  0.36418021     0.08610
H902        H  0.63628112  0.08377291  0.17556038     0.08600
H903        H  0.67021932  0.08896912  0.21831662     0.08600
H904        H  0.64200015  0.12985507  0.20087544     0.05370
C905        C  0.61749115  0.00022469  0.14156664    -0.20430
C906        C  0.65633997  0.00536379  0.12562350    -0.07000
C907        C  0.68737793  0.01395841  0.15250684     0.13870
C908        C  0.67850847  0.01637577  0.19414481    -0.20490
C909        C  0.63943796  0.00917785  0.21128618    -0.07000
C910        C  0.60803931  0.00458155  0.18234542     0.13860
C911        C  0.56338311  0.00768203  0.19182626    -0.23830
H912        H  0.59312130  0.99439883  0.12129766     0.15150
H913        H  0.70189654  0.02826316  0.21238987     0.15170
C914        C  0.72948377  0.02278098  0.13755253    -0.23780
H915        H  0.54514484  0.01144484  0.16449923     0.05390
H916        H  0.55606286  0.03429548  0.20946296     0.08610
H917        H  0.55275379  0.98038225  0.20648613     0.08610
H918        H  0.72877349  0.04871594  0.11687990     0.08600
H919        H  0.74232003  0.99647883  0.12170841     0.08600
H920        H  0.74995406  0.02985473  0.16239726     0.05370
C921        C  0.66848346  0.30556526  0.03416340    -0.20430
C922        C  0.66360194  0.27985788  0.00099137    -0.07000
C923        C  0.69400138  0.28512624  0.96963374     0.13870
C924        C  0.72120489  0.31728461  0.97118434    -0.20490
C925        C  0.72205624  0.34508659  0.00241429    -0.07000
C926        C  0.69208755  0.34002314  0.03322911     0.13860
C927        C  0.67836740  0.37054920  0.06379480    -0.23830
H928        H  0.65038863  0.30236050  0.06094553     0.15150
H929        H  0.74336008  0.32072425  0.94717619     0.15170
C930        C  0.69844955  0.26094948  0.93197120    -0.23780
H931        H  0.68656608  0.36083705  0.09438968     0.05390
H932        H  0.64498532  0.37317894  0.06307335     0.08610
H933        H  0.68787272  0.40103496  0.05835529     0.08610
H934        H  0.66946354  0.25791485  0.91662996     0.08600
H935        H  0.71382249  0.23236461  0.93883498     0.08600
H936        H  0.71846186  0.27517048  0.90918286     0.05370
C937        C  0.60342440  0.24545520  0.07599486    -0.20430
C938        C  0.59574174  0.26336756  0.03835459    -0.07000
C939        C  0.56847300  0.29620359  0.04199840     0.13870
C940        C  0.54028154  0.29737767  0.07392154    -0.20490
C941        C  0.53748187  0.26788805  0.10417583    -0.07000
C942        C  0.57434923  0.24456921  0.10768174     0.13860
C943        C  0.58924085  0.22226519  0.14426969    -0.23830
H944        H  0.63194238  0.22992597  0.08004902     0.15150
H945        H  0.52420131  0.32495944  0.07788689     0.15170
C946        C  0.57395589  0.33508005  0.02051477    -0.23780
H947        H  0.59101765  0.18990043  0.13828428     0.05390
H948        H  0.57196838  0.22705814  0.17201512     0.08610
H949        H  0.62016052  0.23223269  0.15129735     0.08610
H950        H  0.60034367  0.33471817  0.00105639     0.08600
H951        H  0.57932590  0.35871291  0.04275455     0.08600
H952        H  0.54674398  0.34423007  0.00415138     0.05370
C953        C  0.65841779  0.18854344  0.97124434    -0.20430
C954        C  0.63558650  0.20622654  0.00256929    -0.07000
C955        C  0.61886736  0.17687579  0.02988043     0.13870
C956        C  0.63997280  0.14131718  0.03647883    -0.20490
C957        C  0.66592857  0.12592328  0.00702064    -0.07000
C958        C  0.67404945  0.14944028  0.97303114     0.13860
C959        C  0.69471538  0.13186317  0.93674488    -0.23830
H960        H  0.65734781  0.20188868  0.94233353     0.15150
H961        H  0.62887349  0.12127709  0.05969003     0.15170
C962        C  0.57472767  0.17421927  0.04344955    -0.23780
H963        H  0.69900172  0.15424824  0.91254091     0.05390
H964        H  0.67583052  0.10767880  0.92511825     0.08610
H965        H  0.72484894  0.11980874  0.94487230     0.08610
H966        H  0.56064566  0.14882952  0.02809392     0.08600
H967        H  0.55550064  0.20041225  0.03688395     0.08600
H968        H  0.57259313  0.16795426  0.07597372     0.05370
C969        C  0.72177033  0.97540911  0.69289422    -0.20430
C970        C  0.72396086  0.00128987  0.65945265    -0.07000
C971        C  0.68759703  0.02467539  0.65481729     0.13870
C972        C  0.65826231  0.02662563  0.68626316    -0.20490
C973        C  0.66058819  0.00688878  0.72378512    -0.07000
C974        C  0.69401511  0.97919856  0.72558921     0.13860
C975        C  0.70334888  0.95095527  0.75966931    -0.23830
H976        H  0.73928427  0.94851590  0.69221584     0.15150
H977        H  0.63137545  0.04269255  0.67917505     0.15170
C978        C  0.67257101  0.04214039  0.61563242    -0.23780
H979        H  0.70089668  0.91982389  0.74922129     0.05390
H980        H  0.68496115  0.95376736  0.78687989     0.08610
H981        H  0.73490708  0.95569758  0.76913438     0.08610
H982        H  0.64044918  0.03420816  0.61147668     0.08600
H983        H  0.68744437  0.03043188  0.58838232     0.08600
H984        H  0.67414386  0.07505863  0.61631012     0.05370
C985        C  0.56699560  0.10781416  0.72138721    -0.20430
C986        C  0.53061980  0.10717129  0.74487990    -0.07000
C987        C  0.53288223  0.08255093  0.77962738     0.13870
C988        C  0.56229006  0.05239569  0.78140659    -0.20490
C989        C  0.59495872  0.04818449  0.75390405    -0.07000
C990        C  0.60087394  0.08369605  0.73115638     0.13860
C991        C  0.64169855  0.10253293  0.72530889    -0.23830
H992        H  0.57202870  0.12944459  0.69830791     0.15150
H993        H  0.56183875  0.03619952  0.80841018     0.15170
C994        C  0.50916636  0.08995391  0.81816330    -0.23780
H995        H  0.64146578  0.13184651  0.74042625     0.05390
H996        H  0.64840942  0.10774614  0.69304861     0.08610
H997        H  0.66619927  0.08470972  0.73897878     0.08610
H998        H  0.48425775  0.11170243  0.81610874     0.08600
H999        H  0.53017320  0.10116763  0.84089162     0.08600
H1000       H  0.49677824  0.06207923  0.83023736     0.05370
C1001       C  0.62540406  0.98332607  0.87079475    -0.20430
C1002       C  0.65900738  0.00396396  0.88287879    -0.07000
C1003       C  0.68257161  0.02356219  0.85338400     0.13870
C1004       C  0.66969676  0.02432236  0.81300951    -0.20490
C1005       C  0.63440480  0.00462241  0.80028816    -0.07000
C1006       C  0.61095119  0.98516405  0.83194907     0.13860
C1007       C  0.56831374  0.96885731  0.83055498    -0.23830
H1008       H  0.60772123  0.96761624  0.89344580     0.15150
H1009       H  0.68781496  0.04015427  0.79106637     0.15170
C1010       C  0.72128268  0.04331217  0.86414391    -0.23780
H1011       H  0.56861208  0.93683523  0.83837349     0.05390
H1012       H  0.55261002  0.97368633  0.80230088     0.08610
H1013       H  0.54891105  0.98397987  0.85348774     0.08610
H1014       H  0.74254021  0.02083328  0.87651848     0.08600
H1015       H  0.71538527  0.06652024  0.88680614     0.08600
H1016       H  0.73606184  0.05744779  0.83768736     0.05370
C1017       C  0.55612811  0.77155313  0.02960563    -0.20430
C1018       C  0.59189009  0.74869893  0.02764800    -0.07000
C1019       C  0.59458028  0.72009323  0.05998791     0.13870
C1020       C  0.56807009  0.72340661  0.09382393    -0.20490
C1021       C  0.53773184  0.75347567  0.09825533    -0.07000
C1022       C  0.53480766  0.77993578  0.06482041     0.13860
C1023       C  0.50628954  0.81513345  0.06183739    -0.23830
H1024       H  0.54215800  0.78163703  0.00258698     0.15150
H1025       H  0.56960893  0.69925326  0.11474794     0.15170
C1026       C  0.61684437  0.68038205  0.05830396    -0.23780
H1027       H  0.48418937  0.80956996  0.03815492     0.05390
H1028       H  0.52373108  0.84203114  0.05364741     0.08610
H1029       H  0.48974317  0.82207451  0.08962631     0.08610
H1030       H  0.64127581  0.67963823  0.08059672     0.08600
H1031       H  0.62878106  0.67217770  0.02855453     0.08600
H1032       H  0.59569247  0.65600198  0.06601602     0.05370
C1033       C  0.60396023  0.83199165  0.98959940    -0.20430
C1034       C  0.63506506  0.80264891  0.99146247    -0.07000
C1035       C  0.67538757  0.81919732  0.99210855     0.13870
C1036       C  0.68053233  0.86073962  0.99778907    -0.20490
C1037       C  0.64798681  0.88773195  0.99957705    -0.07000
C1038       C  0.60884866  0.87256624  0.99480320     0.13860
C1039       C  0.57093647  0.89836510  0.99327060    -0.23830
H1040       H  0.57495729  0.82458174  0.97911637     0.15150
H1041       H  0.71073705  0.87259851  0.99931280     0.15170
C1042       C  0.71410588  0.79705393  0.98153075    -0.23780
H1043       H  0.54309615  0.88091341  0.98905680     0.05390
H1044       H  0.57296258  0.91948604  0.96769227     0.08610
H1045       H  0.56650571  0.91447538  0.02193598     0.08610
H1046       H  0.71048491  0.77848627  0.95479045     0.08600
H1047       H  0.72593476  0.78054494  0.00751833     0.08600
H1048       H  0.73871909  0.81770791  0.97289267     0.05370
C1049       C  0.95989878  0.72025714  0.33441073    -0.20430
C1050       C  0.99550822  0.74311202  0.33791684    -0.07000
C1051       C  0.02575813  0.73524284  0.30749901     0.13870
C1052       C  0.02016976  0.70512876  0.27880450    -0.20490
C1053       C  0.98532050  0.68135636  0.27677183    -0.07000
C1054       C  0.95349495  0.69130817  0.30504674     0.13860
C1055       C  0.90989942  0.67737230  0.30372729    -0.23830
H1056       H  0.93391371  0.72661438  0.35313890     0.15150
H1057       H  0.04422372  0.70010625  0.25695543     0.15170
C1058       C  0.06469687  0.75753593  0.30203069    -0.23780
H1059       H  0.88853761  0.70047493  0.31537316     0.05390
H1060       H  0.90556750  0.65095676  0.32321853     0.08610
H1061       H  0.89886909  0.67258463  0.27327223     0.08610
H1062       H  0.09045573  0.73605628  0.30068029     0.08600
H1063       H  0.07132253  0.77779461  0.32626995     0.08600
H1064       H  0.06407182  0.77466172  0.27355529     0.05370
C1065       C  0.04831024  0.61580232  0.27294582    -0.20430
C1066       C  0.01927804  0.61686431  0.24259430    -0.07000
C1067       C  0.02483664  0.58687384  0.21233098     0.13870
C1068       C  0.05570131  0.55771909  0.21501177    -0.20490
C1069       C  0.08503119  0.55636121  0.24502672    -0.07000
C1070       C  0.08263978  0.59009338  0.27176432     0.13860
C1071       C  0.11778216  0.60468705  0.29553735    -0.23830
H1072       H  0.04644582  0.63696152  0.29701608     0.15150
H1073       H  0.05832515  0.53848085  0.18997019     0.15170
C1074       C  0.00070661  0.58444642  0.17453371    -0.23780
H1075       H  0.11964910  0.63759123  0.29326266     0.05390
H1076       H  0.14693717  0.59380537  0.28321566     0.08610
H1077       H  0.11396865  0.59671277  0.32762210     0.08610
H1078       H  0.02139431  0.58703864  0.14812887     0.08600
H1079       H  0.97815256  0.60789255  0.17148447     0.08600
H1080       H  0.98520883  0.55548775  0.17292686     0.05370
C1081       C  0.96984287  0.71923638  0.14557660    -0.20430
C1082       C  0.00249311  0.70519368  0.12248631    -0.07000
C1083       C  0.03402845  0.68530837  0.14202808     0.13870
C1084       C  0.02826833  0.67249923  0.18124990    -0.20490
C1085       C  0.99047671  0.67611548  0.20167083    -0.07000
C1086       C  0.96505661  0.70752913  0.18610145     0.13860
C1087       C  0.93504605  0.73200907  0.20995755    -0.23830
H1088       H  0.94745819  0.73844599  0.13182042     0.15150
H1089       H  0.05399151  0.65852670  0.19515180     0.15170
C1090       C  0.07433871  0.67813125  0.12195445    -0.23780
H1091       H  0.94652742  0.76274214  0.21209225     0.05390
H1092       H  0.92979099  0.72098253  0.24015297     0.08610
H1093       H  0.90560161  0.73403096  0.19474389     0.08610
H1094       H  0.08660922  0.70736211  0.11274721     0.08600
H1095       H  0.07125407  0.65832976  0.09586219     0.08600
H1096       H  0.09644020  0.66375278  0.14220553     0.05370
C1097       C  0.26381040  0.56641435  0.02371611    -0.20430
C1098       C  0.24266896  0.60282106  0.02936434    -0.07000
C1099       C  0.24042423  0.61538671  0.07052659     0.13870
C1100       C  0.24350647  0.58657921  0.10132623    -0.20490
C1101       C  0.25773264  0.54727664  0.09425648    -0.07000
C1102       C  0.27785344  0.54383321  0.05633788     0.13860
C1103       C  0.32124378  0.52949464  0.05318072    -0.23830
H1104       H  0.27694410  0.56001460  0.99470523     0.15150
H1105       H  0.23589023  0.59609793  0.13127595     0.15170
C1106       C  0.23732009  0.65829935  0.08395122    -0.23780
H1107       H  0.32436270  0.49730050  0.05693609     0.05390
H1108       H  0.33994385  0.54484738  0.07481734     0.08610
H1109       H  0.33579938  0.53798331  0.02426515     0.08610
H1110       H  0.23467048  0.67992688  0.05914921     0.08600
H1111       H  0.26497344  0.66580138  0.10042540     0.08600
H1112       H  0.21119482  0.66280523  0.10470516     0.05370
C1113       C  0.17620204  0.66975417  0.95980763    -0.20430
C1114       C  0.19302208  0.65288183  0.99485298    -0.07000
C1115       C  0.16651508  0.65477616  0.02925053     0.13870
C1116       C  0.13859320  0.68610401  0.03196435    -0.20490
C1117       C  0.12105187  0.70089696  0.99738434    -0.07000
C1118       C  0.14029512  0.69257912  0.96049002     0.13860
C1119       C  0.12167065  0.70580815  0.92177418    -0.23830
H1120       H  0.18888499  0.66229379  0.93091959     0.15150
H1121       H  0.12188591  0.68954127  0.05951395     0.15170
C1122       C  0.15458722  0.61977668  0.05569321    -0.23780
H1123       H  0.14087171  0.69746924  0.89547621     0.05390
H1124       H  0.11768469  0.73861606  0.92172753     0.08610
H1125       H  0.09183185  0.69175353  0.91837899     0.08610
H1126       H  0.17100849  0.59188509  0.04982548     0.08600
H1127       H  0.15693018  0.62729327  0.08777847     0.08600
H1128       H  0.12241004  0.61269353  0.05055611     0.05370
C1129       C  0.68153157  0.72438637  0.02336674    -0.20430
C1130       C  0.65923479  0.72838745  0.98810757    -0.07000
C1131       C  0.67642437  0.70910204  0.95348201     0.13870
C1132       C  0.70868037  0.68189657  0.95774568    -0.20490
C1133       C  0.72465350  0.67093420  0.99508251    -0.07000
C1134       C  0.71291692  0.69603330  0.02797279     0.13860
C1135       C  0.73318611  0.69563076  0.06797834    -0.23830
H1136       H  0.67300407  0.74311303  0.04848916     0.15150
H1137       H  0.72113391  0.66850199  0.93090105     0.15170
C1138       C  0.66514611  0.71878384  0.91096666    -0.23780
H1139       H  0.72718625  0.66779326  0.08457590     0.05390
H1140       H  0.72161008  0.71977358  0.08777316     0.08610
H1141       H  0.76574033  0.70105535  0.06386138     0.08610
H1142       H  0.66670886  0.75121517  0.90552870     0.08600
H1143       H  0.63519653  0.70696382  0.90443893     0.08600
H1144       H  0.68605893  0.70485104  0.88862930     0.05370
C1145       C  0.71585451  0.59474072  0.04677631    -0.20430
C1146       C  0.75289080  0.61281773  0.03815410    -0.07000
C1147       C  0.78134038  0.60911157  0.07057013     0.13870
C1148       C  0.77495899  0.58015189  0.10105729    -0.20490
C1149       C  0.74451818  0.55144030  0.09865547    -0.07000
C1150       C  0.71195904  0.56202496  0.07273537     0.13860
C1151       C  0.67302251  0.53938920  0.06992416    -0.23830
H1152       H  0.68940557  0.60586679  0.03269697     0.15150
H1153       H  0.79603823  0.57866901  0.12524941     0.15170
C1154       C  0.81715581  0.63525151  0.07833892    -0.23780
H1155       H  0.65296859  0.55138101  0.04657628     0.05390
H1156       H  0.65495637  0.54234225  0.09785393     0.08610
H1157       H  0.67925008  0.50791509  0.06216577     0.08610
H1158       H  0.81908072  0.66242749  0.06051840     0.08600
H1159       H  0.84559959  0.61774277  0.07452540     0.08600
H1160       H  0.81544410  0.64594992  0.10971979     0.05370
C1161       C  0.80861268  0.69426089  0.99074512    -0.20430
C1162       C  0.80079257  0.65256654  0.99117536    -0.07000
C1163       C  0.83558059  0.62680028  0.98836819     0.13870
C1164       C  0.87403958  0.64232117  0.98864575    -0.20490
C1165       C  0.88128948  0.68255960  0.99456365    -0.07000
C1166       C  0.84822635  0.70934568  0.99391033     0.13860
C1167       C  0.85427503  0.75335239  0.99786083    -0.23830
H1168       H  0.78404621  0.71563729  0.99048942     0.15150
H1169       H  0.89925313  0.62150173  0.98587633     0.15170
C1170       C  0.83563991  0.58225638  0.98621665    -0.23780
H1171       H  0.82512933  0.77006216  0.99763394     0.05390
H1172       H  0.87327383  0.76428822  0.97251626     0.08610
H1173       H  0.86931784  0.75964743  0.02650208     0.08610
H1174       H  0.80567050  0.57032150  0.98569057     0.08600
H1175       H  0.85143993  0.56936387  0.01238379     0.08600
H1176       H  0.85149435  0.57226548  0.95838968     0.05370
C1177       C  0.02889983  0.68300494  0.70066043    -0.20430
C1178       C  0.99658169  0.67613369  0.72788360    -0.07000
C1179       C  0.96513286  0.70614776  0.72747265     0.13870
C1180       C  0.96427976  0.73529362  0.69643889    -0.20490
C1181       C  0.99583985  0.74009173  0.66769015    -0.07000
C1182       C  0.03187671  0.71707240  0.67637341     0.13860
C1183       C  0.07557281  0.72961196  0.66827462    -0.23830
H1184       H  0.05519875  0.66396159  0.70069757     0.15150
H1185       H  0.93892788  0.75560889  0.69597733     0.15170
C1186       C  0.93162828  0.70903734  0.75875600    -0.23780
H1187       H  0.09769174  0.70825562  0.68119493     0.05390
H1188       H  0.08221238  0.75747821  0.68369844     0.08610
H1189       H  0.08535935  0.73124241  0.63690854     0.08610
H1190       H  0.93471290  0.73713512  0.77560912     0.08600
H1191       H  0.93182774  0.68411792  0.78043699     0.08600
H1192       H  0.90169555  0.71034298  0.74455790     0.05370
C1193       C  0.07578326  0.61623988  0.75955198    -0.20430
C1194       C  0.03645088  0.61150170  0.74495268    -0.07000
C1195       C  0.03135009  0.57751399  0.72167704     0.13870
C1196       C  0.05609594  0.54424770  0.72762709    -0.20490
C1197       C  0.09415167  0.54508780  0.74614975    -0.07000
C1198       C  0.10380147  0.58373247  0.76273904     0.13860
C1199       C  0.13724483  0.59181439  0.79140937    -0.23830
H1200       H  0.08258433  0.64431694  0.77346826     0.15150
H1201       H  0.04486118  0.51706285  0.71650567     0.15170
C1202       C  0.00213341  0.57622809  0.68807372    -0.23780
H1203       H  0.13005216  0.61745615  0.81120929     0.05390
H1204       H  0.16477959  0.60106917  0.77486912     0.08610
H1205       H  0.14137157  0.56676403  0.81260455     0.08610
H1206       H  0.98880439  0.60570286  0.68185866     0.08600
H1207       H  0.97845417  0.55456665  0.69512298     0.08600
H1208       H  0.01819592  0.56717078  0.66015754     0.05370
C1209       C  0.00502989  0.69573836  0.81256286    -0.20430
C1210       C  0.00912937  0.65455876  0.80298554    -0.07000
C1211       C  0.02335467  0.62995486  0.83617174     0.13870
C1212       C  0.02201155  0.64495483  0.87484487    -0.20490
C1213       C  0.00811879  0.68298349  0.88392543    -0.07000
C1214       C  0.00194780  0.70977687  0.85225654     0.13860
C1215       C  0.99173699  0.75281767  0.85986822    -0.23830
H1216       H  0.00367713  0.71795462  0.78946955     0.15150
H1217       H  0.03191094  0.62574691  0.89910538     0.15170
C1218       C  0.04228381  0.58830934  0.83644482    -0.23780
H1219       H  0.98726483  0.76963133  0.83157497     0.05390
H1220       H  0.01666506  0.76689819  0.87614476     0.08610
H1221       H  0.96334678  0.75515255  0.87794056     0.08610
H1222       H  0.07390289  0.58978770  0.84659816     0.08600
H1223       H  0.04180581  0.57176471  0.80850646     0.08600
H1224       H  0.02590116  0.56916479  0.85842199     0.05370
C1225       C  0.35310870  0.98569799  0.31847562    -0.20430
C1226       C  0.34913883  0.00997925  0.28466775    -0.07000
C1227       C  0.31700609  0.03923691  0.28699565     0.13870
C1228       C  0.28883133  0.03866229  0.31938342    -0.20490
C1229       C  0.29256301  0.01315347  0.35284019    -0.07000
C1230       C  0.33074603  0.99222177  0.35400012     0.13860
C1231       C  0.35387087  0.98214947  0.39111985    -0.23830
H1232       H  0.37795269  0.96471563  0.31960117     0.15150
H1233       H  0.26345641  0.05917459  0.31828379     0.15170
C1234       C  0.30892060  0.07104975  0.25611463    -0.23780
H1235       H  0.34103510  0.95785138  0.40897680     0.05390
H1236       H  0.35838912  0.01003041  0.40743689     0.08610
H1237       H  0.38504131  0.97123064  0.38432217     0.08610
H1238       H  0.27651676  0.07099796  0.24810263     0.08600
H1239       H  0.32546656  0.06717022  0.22790865     0.08600
H1240       H  0.31596712  0.10058138  0.26866319     0.05370
C1241       C  0.40745007  0.08102250  0.23464757    -0.20430
C1242       C  0.40908364  0.04756718  0.26011467    -0.07000
C1243       C  0.43591007  0.05158212  0.29270513     0.13870
C1244       C  0.46549653  0.08151300  0.29184185    -0.20490
C1245       C  0.46803923  0.11200456  0.26272837    -0.07000
C1246       C  0.43391414  0.11336880  0.23669975     0.13860
C1247       C  0.41883638  0.14833600  0.21312752    -0.23830
H1248       H  0.38477688  0.08291744  0.21204376     0.15150
H1249       H  0.48611070  0.08121887  0.31566461     0.15170
C1250       C  0.43379978  0.02607751  0.32983234    -0.23780
H1251       H  0.43453877  0.17616947  0.21727890     0.05390
H1252       H  0.38706378  0.15515208  0.22229630     0.08610
H1253       H  0.41872718  0.13954367  0.18137971     0.08610
H1254       H  0.43711659  0.99417451  0.32265699     0.08600
H1255       H  0.40528239  0.03290473  0.34616296     0.08600
H1256       H  0.45811825  0.03280644  0.35110389     0.05370
C1257       C  0.32228233  0.99657418  0.15130635    -0.20430
C1258       C  0.35294801  0.00568526  0.12353278    -0.07000
C1259       C  0.39059868  0.01789935  0.13725439     0.13870
C1260       C  0.39736230  0.01743536  0.17786552    -0.20490
C1261       C  0.36774041  0.00800084  0.20737483    -0.07000
C1262       C  0.32871758  0.99668320  0.19288197     0.13860
C1263       C  0.29260260  0.98277324  0.21742741    -0.23830
H1264       H  0.29316729  0.98764953  0.14030724     0.15150
H1265       H  0.42705179  0.02607941  0.18643173     0.15170
C1266       C  0.42426204  0.03270055  0.10987557    -0.23780
H1267       H  0.28095516  0.95494461  0.20441517     0.05390
H1268       H  0.26800764  0.00542861  0.21612543     0.08610
H1269       H  0.29825713  0.97516449  0.24868431     0.08610
H1270       H  0.41268729  0.05683901  0.09021071     0.08600
H1271       H  0.43705107  0.00792436  0.09170024     0.08600
H1272       H  0.44975573  0.04514087  0.12671769     0.05370
C1273       C  0.34122200  0.30888012  0.96709345    -0.20430
C1274       C  0.34028573  0.27869511  0.99684539    -0.07000
C1275       C  0.30962293  0.28396543  0.02703892     0.13870
C1276       C  0.28326833  0.31735354  0.02621389    -0.20490
C1277       C  0.28615939  0.34948454  0.99890443    -0.07000
C1278       C  0.32002694  0.34570111  0.97136443     0.13860
C1279       C  0.34336050  0.38092191  0.95543964    -0.23830
H1280       H  0.36401066  0.30743767  0.94365382     0.15150
H1281       H  0.26113563  0.31804124  0.04923798     0.15170
C1282       C  0.30283308  0.25613193  0.06202485    -0.23780
H1283       H  0.37372357  0.37222846  0.94352950     0.05390
H1284       H  0.34965169  0.40081241  0.98065265     0.08610
H1285       H  0.32920424  0.39641973  0.93025098     0.08610
H1286       H  0.32218617  0.22960450  0.06188222     0.08600
H1287       H  0.27118775  0.24558950  0.06202783     0.08600
H1288       H  0.30791393  0.27220485  0.09037381     0.05370
C1289       C  0.40133549  0.23100622  0.07340893    -0.20430
C1290       C  0.39834546  0.25873474  0.04174870    -0.07000
C1291       C  0.41617472  0.29580436  0.05041170     0.13870
C1292       C  0.44903186  0.29634852  0.07655433    -0.20490
C1293       C  0.45890212  0.26487693  0.10378214    -0.07000
C1294       C  0.42838490  0.23499231  0.10516387     0.13860
C1295       C  0.41884291  0.20900858  0.14016993    -0.23830
H1296       H  0.38226915  0.20524524  0.07422281     0.15150
H1297       H  0.46370640  0.32435134  0.07821511     0.15170
C1298       C  0.40369097  0.33463975  0.03107243    -0.23780
H1299       H  0.43559211  0.18081282  0.13587163     0.05390
H1300       H  0.38625890  0.20142908  0.14163243     0.08610
H1301       H  0.42374423  0.22433532  0.16863663     0.08610
H1302       H  0.40829629  0.33397068  0.99832434     0.08600
H1303       H  0.42135677  0.36007894  0.04199399     0.08600
H1304       H  0.37170576  0.34137524  0.03894122     0.05370
C1305       C  0.32480103  0.19020344  0.99600255    -0.20430
C1306       C  0.36520588  0.20287182  0.00147376    -0.07000
C1307       C  0.39506808  0.17206237  0.00683386     0.13870
C1308       C  0.38357478  0.13254485  0.00938117    -0.20490
C1309       C  0.34384898  0.12009641  0.00433400    -0.07000
C1310       C  0.31393522  0.14948285  0.99719834     0.13860
C1311       C  0.27091674  0.13821351  0.98998636    -0.23830
H1312       H  0.30147301  0.21199400  0.98978626     0.15150
H1313       H  0.40718690  0.11074409  0.01524000     0.15170
C1314       C  0.43993103  0.17775989  0.01223145    -0.23780
H1315       H  0.25150573  0.16471977  0.98421930     0.05390
H1316       H  0.25840801  0.12254457  0.01666605     0.08610
H1317       H  0.26966147  0.11850343  0.96352747     0.08610
H1318       H  0.44859088  0.16661002  0.04226917     0.08600
H1319       H  0.45054805  0.20840779  0.00988404     0.08600
H1320       H  0.45665465  0.15949172  0.98984947     0.05370
C1321       C  0.30893215  0.72472882  0.97224295    -0.20430
C1322       C  0.33790148  0.72026372  0.00239858    -0.07000
C1323       C  0.33428778  0.68529292  0.02671278     0.13870
C1324       C  0.30460533  0.65724205  0.01820482    -0.20490
C1325       C  0.27193548  0.66334942  0.99166584    -0.07000
C1326       C  0.27678135  0.69793171  0.96625299     0.13860
C1327       C  0.25210971  0.70714318  0.92992038    -0.23830
H1328       H  0.31208514  0.75005946  0.95228382     0.15150
H1329       H  0.30835780  0.62926831  0.03332512     0.15170
C1330       C  0.36168943  0.67393522  0.06082641    -0.23780
H1331       H  0.26755817  0.72838335  0.90939460     0.05390
H1332       H  0.22365969  0.72248257  0.93883471     0.08610
H1333       H  0.24805118  0.68046752  0.91144442     0.08610
H1334       H  0.39280832  0.66818469  0.04967960     0.08600
H1335       H  0.35266806  0.64596769  0.07615357     0.08600
H1336       H  0.35997105  0.69665878  0.08454460     0.05370
C1337       C  0.39569358  0.76282458  0.07511844    -0.20430
C1338       C  0.40462971  0.74363797  0.03769848    -0.07000
C1339       C  0.44340210  0.72424001  0.03578718     0.13870
C1340       C  0.46665707  0.72212816  0.07004200    -0.20490
C1341       C  0.46276471  0.74955583  0.10178099    -0.07000
C1342       C  0.42557194  0.77144056  0.10352190     0.13860
C1343       C  0.41565420  0.80470277  0.13247635    -0.23830
H1344       H  0.36585565  0.77556983  0.08017325     0.15150
H1345       H  0.49214219  0.70159746  0.07001591     0.15170
C1346       C  0.46355789  0.70554162  0.99990618    -0.23780
H1347       H  0.38942718  0.82267098  0.12213180     0.05390
H1348       H  0.44060903  0.82597594  0.13483433     0.08610
H1349       H  0.40659528  0.79330582  0.16216198     0.08610
H1350       H  0.49407749  0.69349732  0.00615158     0.08600
H1351       H  0.46917005  0.72855555  0.97693647     0.08600
H1352       H  0.44689466  0.67949117  0.99010388     0.05370
C1353       C  0.39012395  0.82344051  0.01389655    -0.20430
C1354       C  0.35862910  0.79583413  0.00892365    -0.07000
C1355       C  0.31847909  0.81203019  0.01432650     0.13870
C1356       C  0.31228948  0.85390652  0.01260981    -0.20490
C1357       C  0.34479374  0.88033660  0.01170613    -0.07000
C1358       C  0.38434381  0.86422111  0.01550841     0.13860
C1359       C  0.42179985  0.88896114  0.02099375    -0.23830
H1360       H  0.42099299  0.81264590  0.01340745     0.15150
H1361       H  0.28179938  0.86600631  0.01383275     0.15170
C1362       C  0.28257569  0.78846942  0.02870784    -0.23780
H1363       H  0.44889485  0.87057201  0.02757211     0.05390
H1364       H  0.41727929  0.90943092  0.04667130     0.08610
H1365       H  0.42923160  0.90566453  0.99315681     0.08610
H1366       H  0.29155941  0.76147800  0.04553010     0.08600
H1367       H  0.26265588  0.78163712  0.00341753     0.08600
H1368       H  0.26434285  0.80616276  0.05062137     0.05370
C1369       C  0.34321537  0.98999423  0.69428949    -0.20430
C1370       C  0.33351376  0.00981893  0.73018410    -0.07000
C1371       C  0.29566416  0.03143664  0.73031938     0.13870
C1372       C  0.27324781  0.03424037  0.69492194    -0.20490
C1373       C  0.28000303  0.00941776  0.66147038    -0.07000
C1374       C  0.31599425  0.98497542  0.66299241     0.13860
C1375       C  0.33090345  0.95471317  0.63298401    -0.23830
H1376       H  0.37297482  0.97707603  0.69018569     0.15150
H1377       H  0.24704638  0.05392041  0.69499680     0.15170
C1378       C  0.27412857  0.05057048  0.76579369    -0.23780
H1379       H  0.33028970  0.92464635  0.64684041     0.05390
H1380       H  0.36246567  0.96113374  0.62333821     0.08610
H1381       H  0.31412619  0.95406682  0.60592607     0.08610
H1382       H  0.28911384  0.04925878  0.79445577     0.08600
H1383       H  0.24472760  0.03576939  0.77085381     0.08600
H1384       H  0.26740718  0.08231448  0.75919726     0.05370
C1385       C  0.42529741  0.04190747  0.72402974    -0.20430
C1386       C  0.39299295  0.04804708  0.75104476    -0.07000
C1387       C  0.38863318  0.08827449  0.76456698     0.13870
C1388       C  0.42329999  0.11192658  0.76723264    -0.20490
C1389       C  0.45688499  0.10524227  0.74183240    -0.07000
C1390       C  0.45553330  0.07006940  0.71755048     0.13860
C1391       C  0.48447172  0.05966228  0.68395177    -0.23830
H1392       H  0.42758637  0.01424453  0.70772175     0.15150
H1393       H  0.42188364  0.13785999  0.78594130     0.15170
C1394       C  0.34863183  0.10889445  0.77210035    -0.23780
H1395       H  0.46748349  0.05604612  0.65589499     0.05390
H1396       H  0.49840514  0.03082600  0.69168887     0.08610
H1397       H  0.50819444  0.08142673  0.67740957     0.08610
H1398       H  0.33214648  0.09762372  0.79849838     0.08600
H1399       H  0.33044826  0.10676490  0.74475868     0.08600
H1400       H  0.35251716  0.14114335  0.77756931     0.05370
C1401       C  0.36159643  0.03932264  0.83424666    -0.20430
C1402       C  0.34845971  0.01090067  0.80658239    -0.07000
C1403       C  0.32109350  0.98127576  0.82196335     0.13870
C1404       C  0.31205487  0.97988474  0.86322430    -0.20490
C1405       C  0.32613165  0.00893103  0.88874450    -0.07000
C1406       C  0.34795586  0.04094178  0.87335600     0.13860
C1407       C  0.35961110  0.07596804  0.89882584    -0.23830
H1408       H  0.38548566  0.05934831  0.82781420     0.15150
H1409       H  0.29486677  0.95538735  0.87569918     0.15170
C1410       C  0.30050003  0.95007923  0.79767395    -0.23780
H1411       H  0.37335494  0.10012248  0.88053790     0.05390
H1412       H  0.38200806  0.06701453  0.92147163     0.08610
H1413       H  0.33224794  0.08859332  0.91394019     0.08610
H1414       H  0.30263521  0.95413200  0.76524179     0.08600
H1415       H  0.26761325  0.95078707  0.80486195     0.08600
H1416       H  0.31269342  0.92020774  0.80556102     0.05370
C1417       C  0.53623038  0.71987934  0.91917658    -0.20430
C1418       C  0.53172059  0.75136754  0.89122730    -0.07000
C1419       C  0.56276761  0.78059562  0.89145488     0.13870
C1420       C  0.59257146  0.77916077  0.92090761    -0.20490
C1421       C  0.59368776  0.75039504  0.95173563    -0.07000
C1422       C  0.56727691  0.71769856  0.94720226     0.13860
C1423       C  0.57240567  0.67884934  0.96916913    -0.23830
H1424       H  0.51545513  0.69537981  0.91826771     0.15150
H1425       H  0.61613812  0.80106376  0.91933548     0.15170
C1426       C  0.56825746  0.81235020  0.86037161    -0.23780
H1427       H  0.56302901  0.68180908  0.00072096     0.05390
H1428       H  0.60395246  0.66791833  0.96587971     0.08610
H1429       H  0.55314863  0.65527298  0.95679882     0.08610
H1430       H  0.54064477  0.83020727  0.85698889     0.08600
H1431       H  0.57827158  0.79889511  0.83177554     0.08600
H1432       H  0.59202750  0.83377830  0.86824430     0.05370
C1433       C  0.43638973  0.71428142  0.90651484    -0.20430
C1434       C  0.45724281  0.74945739  0.89488357    -0.07000
C1435       C  0.44476736  0.78418925  0.91610537     0.13870
C1436       C  0.40980899  0.78359925  0.94000877    -0.20490
C1437       C  0.39529852  0.74858620  0.95853094    -0.07000
C1438       C  0.40520368  0.71320668  0.93621797     0.13860
C1439       C  0.38491708  0.67339893  0.94229758    -0.23830
H1440       H  0.44672113  0.68586161  0.89568969     0.15150
H1441       H  0.39578359  0.81210988  0.94494087     0.15170
C1442       C  0.46700727  0.82290382  0.91664266    -0.23780
H1443       H  0.39908024  0.64965526  0.92361350     0.05390
H1444       H  0.35320143  0.67525396  0.93273731     0.08610
H1445       H  0.38662511  0.66267594  0.97343476     0.08610
H1446       H  0.44774286  0.84774317  0.90568909     0.08600
H1447       H  0.49460567  0.82210897  0.89886170     0.08600
H1448       H  0.47561228  0.82956650  0.94783951     0.05370
C1449       C  0.46085235  0.69091822  0.82488935    -0.20430
C1450       C  0.49644914  0.70773760  0.84034539    -0.07000
C1451       C  0.53279771  0.68455380  0.83484684     0.13870
C1452       C  0.52991411  0.64410404  0.82801232    -0.20490
C1453       C  0.49334681  0.62577581  0.82334236    -0.07000
C1454       C  0.45827590  0.64938649  0.81913685     0.13860
C1455       C  0.41825982  0.63061922  0.81125465    -0.23830
H1456       H  0.43359188  0.70892529  0.82346244     0.15150
H1457       H  0.55683772  0.62639526  0.82631667     0.15170
C1458       C  0.57565524  0.69935884  0.83394053    -0.23780
H1459       H  0.39361657  0.65323469  0.80952696     0.05390
H1460       H  0.41059203  0.60943278  0.83576201     0.08610
H1461       H  0.41995072  0.61432512  0.78248446     0.08610
H1462       H  0.59241201  0.68550430  0.85885453     0.08600
H1463       H  0.57867102  0.73163226  0.83491715     0.08600
H1464       H  0.59071023  0.69015367  0.80543382     0.05370
C1465       C  0.71192481  0.45254557  0.91729922    -0.20430
C1466       C  0.74692840  0.46238248  0.89395511    -0.07000
C1467       C  0.77697093  0.43068425  0.89393536     0.13870
C1468       C  0.77581504  0.40078168  0.92429130    -0.20490
C1469       C  0.74633429  0.39980973  0.95553859    -0.07000
C1470       C  0.71084761  0.42284661  0.94742911     0.13860
C1471       C  0.67283490  0.42073750  0.97282976    -0.23830
H1472       H  0.68402276  0.46850465  0.91231182     0.15150
H1473       H  0.79922389  0.37805087  0.92357517     0.15170
C1474       C  0.80881935  0.42270840  0.86181867    -0.23780
H1475       H  0.64768862  0.43845287  0.95990305     0.05390
H1476       H  0.67796299  0.43321643  0.00267333     0.08610
H1477       H  0.66212925  0.38999792  0.97523189     0.08610
H1478       H  0.83894390  0.43155907  0.87246961     0.08600
H1479       H  0.80241446  0.43597947  0.83245644     0.08600
H1480       H  0.81047209  0.39036644  0.85529744     0.05370
C1481       C  0.72200593  0.54393299  0.93257957    -0.20430
C1482       C  0.74996611  0.54093804  0.89983592    -0.07000
C1483       C  0.77244201  0.57730544  0.89362545     0.13870
C1484       C  0.77408422  0.60634576  0.92440662    -0.20490
C1485       C  0.74898000  0.60594067  0.95930021    -0.07000
C1486       C  0.71667263  0.57865902  0.95590974     0.13860
C1487       C  0.67286377  0.58992423  0.96328065    -0.23830
H1488       H  0.69767918  0.52354262  0.93496025     0.15150
H1489       H  0.79380208  0.63135787  0.91949799     0.15170
C1490       C  0.78769265  0.59198120  0.85335994    -0.23780
H1491       H  0.65689833  0.58980006  0.93433799     0.05390
H1492       H  0.66785800  0.62000323  0.97528117     0.08610
H1493       H  0.65808131  0.56763038  0.98281661     0.08610
H1494       H  0.76660578  0.58432556  0.82954203     0.08600
H1495       H  0.81898330  0.58178986  0.84705316     0.08600
H1496       H  0.78872867  0.62497569  0.85227141     0.05370
C1497       C  0.68158835  0.54279216  0.85092087    -0.20430
C1498       C  0.70349714  0.50653378  0.84932646    -0.07000
C1499       C  0.68426133  0.47352097  0.83069439     0.13870
C1500       C  0.64378278  0.47687902  0.81948216    -0.20490
C1501       C  0.62238502  0.51251171  0.82391345    -0.07000
C1502       C  0.64181765  0.54593138  0.83891301     0.13860
C1503       C  0.62070288  0.58537837  0.84221122    -0.23830
H1504       H  0.69556120  0.56975932  0.86069115     0.15150
H1505       H  0.62850515  0.45112954  0.80796116     0.15170
C1506       C  0.70529976  0.43508841  0.81972455    -0.23780
H1507       H  0.64019081  0.60875193  0.85464442     0.05390
H1508       H  0.59384784  0.58272778  0.86234115     0.08610
H1509       H  0.61220733  0.59476041  0.81162599     0.08610
H1510       H  0.73821004  0.43741245  0.82060589     0.08600
H1511       H  0.69848078  0.42726408  0.78834801     0.08600
H1512       H  0.69475697  0.41079174  0.83978499     0.05370
C1513       C  0.19125720  0.47592052  0.82935087    -0.20430
C1514       C  0.22021059  0.50621085  0.82987185    -0.07000
C1515       C  0.21860092  0.53419308  0.79709141     0.13870
C1516       C  0.19001587  0.52961713  0.76645337    -0.20490
C1517       C  0.15920988  0.50151477  0.76884486    -0.07000
C1518       C  0.16642989  0.46993279  0.79645452     0.13860
C1519       C  0.16046795  0.42704099  0.78558474    -0.23830
H1520       H  0.19013640  0.45359551  0.85254651     0.15150
H1521       H  0.18984432  0.55017659  0.74142050     0.15170
C1522       C  0.24578163  0.56951984  0.79294170    -0.23780
H1523       H  0.18501933  0.40778612  0.79740369     0.05390
H1524       H  0.16183629  0.42300933  0.75271738     0.08610
H1525       H  0.13196862  0.41627417  0.79863140     0.08610
H1526       H  0.23899454  0.58764783  0.76597548     0.08600
H1527       H  0.27740837  0.55981254  0.78899259     0.08600
H1528       H  0.24137375  0.58966344  0.81867622     0.05370
C1529       C  0.26918390  0.60578680  0.92565675    -0.20430
C1530       C  0.23586734  0.60469632  0.95242316    -0.07000
C1531       C  0.20446775  0.57754036  0.94210229     0.13870
C1532       C  0.20804384  0.55387570  0.90723357    -0.20490
C1533       C  0.24497900  0.54914122  0.88611036    -0.07000
C1534       C  0.27383411  0.58028638  0.89247768     0.13860
C1535       C  0.30964856  0.59066271  0.86573199    -0.23830
H1536       H  0.29346585  0.62608870  0.93092792     0.15150
H1537       H  0.18445799  0.53283691  0.90114475     0.15170
C1538       C  0.16891159  0.56848536  0.96927340    -0.23780
H1539       H  0.30612313  0.62182169  0.85505665     0.05390
H1540       H  0.31375974  0.57245161  0.83898148     0.08610
H1541       H  0.33792310  0.58867108  0.88303535     0.08610
H1542       H  0.14918997  0.59477767  0.97406002     0.08600
H1543       H  0.18015800  0.55581713  0.99757640     0.08600
H1544       H  0.14910574  0.54548145  0.95669769     0.05370
C1545       C  0.24873745  0.48065890  0.93825590    -0.20430
C1546       C  0.24763638  0.47123315  0.89696732    -0.07000
C1547       C  0.25427483  0.42916388  0.88917999     0.13870
C1548       C  0.25652747  0.40110687  0.92134640    -0.20490
C1549       C  0.25751549  0.41307009  0.96185349    -0.07000
C1550       C  0.26422371  0.45394751  0.96631360     0.13860
C1551       C  0.30426065  0.46656857  0.98164455    -0.23830
H1552       H  0.25043588  0.51083864  0.94796648     0.15150
H1553       H  0.25738855  0.36956928  0.91481929     0.15170
C1554       C  0.26035513  0.41145312  0.84843438    -0.23780
H1555       H  0.30370859  0.49858503  0.98670925     0.05390
H1556       H  0.32787247  0.46146480  0.95829845     0.08610
H1557       H  0.31364771  0.45109722  0.00885200     0.08610
H1558       H  0.25702036  0.43316287  0.82451379     0.08600
H1559       H  0.23777500  0.38789552  0.84382902     0.08600
H1560       H  0.29111988  0.39807094  0.84589635     0.05370
C1561       C  0.35716943  0.49373441  0.80732208    -0.20430
C1562       C  0.38249080  0.50083473  0.83946072    -0.07000
C1563       C  0.36535341  0.50638748  0.87804994     0.13870
C1564       C  0.32397841  0.50589987  0.88261468    -0.20490
C1565       C  0.29704352  0.50179992  0.85070367    -0.07000
C1566       C  0.31481131  0.49274052  0.81198988     0.13860
C1567       C  0.29363857  0.48059196  0.77423987    -0.23830
H1568       H  0.37072885  0.48814721  0.77807006     0.15150
H1569       H  0.31230984  0.51286557  0.91197779     0.15170
C1570       C  0.38929400  0.51527957  0.91519455    -0.23780
H1571       H  0.30685548  0.45192740  0.76363515     0.05390
H1572       H  0.29888817  0.50315300  0.75040437     0.08610
H1573       H  0.26120704  0.47539609  0.77654864     0.08610
H1574       H  0.40733722  0.54254142  0.91038940     0.08600
H1575       H  0.40902045  0.48951123  0.92282052     0.08600
H1576       H  0.36980440  0.52100417  0.94198982     0.05370
C1577       C  0.47009300  0.23144411  0.80567622    -0.20430
C1578       C  0.50291148  0.23098228  0.83220990    -0.07000
C1579       C  0.53527805  0.20362897  0.82203099     0.13870
C1580       C  0.52995375  0.17601727  0.79144016    -0.20490
C1581       C  0.49402456  0.17132934  0.76962652    -0.07000
C1582       C  0.46533694  0.20333714  0.77460655     0.13860
C1583       C  0.43112415  0.21149267  0.74634574    -0.23830
H1584       H  0.44746554  0.25475044  0.80932901     0.15150
H1585       H  0.55602818  0.15785176  0.78462303     0.15170
C1586       C  0.57699928  0.20104713  0.84062847    -0.23780
H1587       H  0.41589763  0.24042947  0.75272953     0.05390
H1588       H  0.40722618  0.18930281  0.74948861     0.08610
H1589       H  0.44245692  0.21373492  0.71511203     0.08610
H1590       H  0.57635868  0.18235401  0.86786574     0.08600
H1591       H  0.59080054  0.22983534  0.84626081     0.08600
H1592       H  0.59964764  0.18637250  0.82051197     0.05370
C1593       C  0.57011219  0.28736622  0.89820355    -0.20430
C1594       C  0.54051456  0.25789856  0.89429896    -0.07000
C1595       C  0.54237458  0.22612838  0.92242251     0.13870
C1596       C  0.56876749  0.22764509  0.95442516    -0.20490
C1597       C  0.59686315  0.25820349  0.96099923    -0.07000
C1598       C  0.59718506  0.28900499  0.93045391     0.13860
C1599       C  0.62218485  0.32632493  0.92846837    -0.23830
H1600       H  0.57028601  0.31227354  0.87801515     0.15150
H1601       H  0.56738562  0.20255323  0.97390294     0.15170
C1602       C  0.51580762  0.18991035  0.92141103    -0.23780
H1603       H  0.60177126  0.35275410  0.92675097     0.05390
H1604       H  0.64168234  0.32592436  0.90107605     0.08610
H1605       H  0.64127729  0.33196934  0.95357174     0.08610
H1606       H  0.53457044  0.16238923  0.92343259     0.08600
H1607       H  0.49765632  0.18722287  0.89433208     0.08600
H1608       H  0.49500581  0.19113165  0.94745448     0.05370
C1609       C  0.43165878  0.23743103  0.89374438    -0.20430
C1610       C  0.46643036  0.26102797  0.89794069    -0.07000
C1611       C  0.46775022  0.28292959  0.93431658     0.13870
C1612       C  0.44420101  0.27139317  0.96683168    -0.20490
C1613       C  0.40752613  0.25148860  0.96317030    -0.07000
C1614       C  0.40063116  0.23590537  0.92384958     0.13860
C1615       C  0.36177587  0.21647837  0.91256010    -0.23830
H1616       H  0.42753559  0.22045269  0.86701061     0.15150
H1617       H  0.45591650  0.27994402  0.99481931     0.15170
C1618       C  0.49525553  0.31709705  0.94276180    -0.23780
H1619       H  0.35921111  0.21420427  0.87957012     0.05390
H1620       H  0.33542053  0.23432278  0.92331670     0.08610
H1621       H  0.36081898  0.18570924  0.92444320     0.08610
H1622       H  0.50924535  0.33107975  0.91628588     0.08600
H1623       H  0.51889963  0.30585702  0.96282233     0.08600
H1624       H  0.47790994  0.34130018  0.95802106     0.05370
C1625       C  0.53073239  0.36326872  0.81224200    -0.20430
C1626       C  0.50164117  0.38823666  0.83000516    -0.07000
C1627       C  0.46706930  0.37150065  0.84772287     0.13870
C1628       C  0.46558041  0.33036585  0.85277606    -0.20490
C1629       C  0.49989222  0.30544449  0.84507961    -0.07000
C1630       C  0.52952441  0.32173235  0.81804489     0.13860
C1631       C  0.56034363  0.29697990  0.79543242    -0.23830
H1632       H  0.55519089  0.37642213  0.79494746     0.15150
H1633       H  0.43801455  0.31872239  0.86565911     0.15170
C1634       C  0.43162845  0.39695141  0.86148614    -0.23780
H1635       H  0.57771070  0.31518088  0.77346190     0.05390
H1636       H  0.54533409  0.27364084  0.77806976     0.08610
H1637       H  0.58267581  0.28420992  0.81581316     0.08610
H1638       H  0.41986948  0.41436292  0.83582338     0.08600
H1639       H  0.44105084  0.41754715  0.88527096     0.08600
H1640       H  0.40651419  0.37882275  0.87387965     0.05370
C1641       C  0.76178287  0.89937484  0.42960814    -0.20430
C1642       C  0.74125476  0.90941302  0.46600232    -0.07000
C1643       C  0.72534095  0.94911328  0.46660220     0.13870
C1644       C  0.74144886  0.97788154  0.44053399    -0.20490
C1645       C  0.76151379  0.96786329  0.40430984    -0.07000
C1646       C  0.76313315  0.92614278  0.39659840     0.13860
C1647       C  0.76489288  0.90883117  0.35514274    -0.23830
H1648       H  0.77164874  0.86900899  0.42464975     0.15150
H1649       H  0.73153586  0.00811277  0.44567987     0.15170
C1650       C  0.68557900  0.96092868  0.48525182    -0.23780
H1651       H  0.76400291  0.87585775  0.35609842     0.05390
H1652       H  0.79268150  0.91666592  0.33878921     0.08610
H1653       H  0.73818553  0.91902743  0.33824533     0.08610
H1654       H  0.68988188  0.97542756  0.51442679     0.08600
H1655       H  0.66498511  0.93559453  0.48520337     0.08600
H1656       H  0.66972073  0.98337576  0.46645612     0.05370
C1657       C  0.77038177  0.89316983  0.56886744    -0.20430
C1658       C  0.73563006  0.89668207  0.54446409    -0.07000
C1659       C  0.70378982  0.91938638  0.56402812     0.13870
C1660       C  0.71357847  0.94732382  0.59344837    -0.20490
C1661       C  0.75303777  0.95355091  0.60736667    -0.07000
C1662       C  0.78093700  0.92181184  0.59795042     0.13860
C1663       C  0.82272422  0.91746646  0.61485616    -0.23830
H1664       H  0.79063638  0.86827212  0.56536380     0.15150
H1665       H  0.68900981  0.96528286  0.60488593     0.15170
C1666       C  0.65842036  0.91456481  0.56014042    -0.23780
H1667       H  0.84065224  0.89354924  0.59982368     0.05390
H1668       H  0.82076285  0.90843344  0.64662243     0.08610
H1669       H  0.84040768  0.94478140  0.61041796     0.08610
H1670       H  0.64776923  0.89894045  0.53401342     0.08600
H1671       H  0.64652839  0.89903700  0.58720741     0.08600
H1672       H  0.64310773  0.94411954  0.55882541     0.05370
C1673       C  0.67888848  0.83264816  0.52790683    -0.20430
C1674       C  0.69378380  0.85515544  0.49471686    -0.07000
C1675       C  0.66964978  0.85456214  0.45912799     0.13870
C1676       C  0.63006892  0.84104800  0.46175502    -0.20490
C1677       C  0.61387660  0.82611596  0.49702272    -0.07000
C1678       C  0.63879046  0.81964955  0.52996449     0.13860
C1679       C  0.62197536  0.80362118  0.56860603    -0.23830
H1680       H  0.69744720  0.82889404  0.55404518     0.15150
H1681       H  0.61045819  0.84379015  0.43616806     0.15170
C1682       C  0.68311772  0.86523968  0.41719180    -0.23780
H1683       H  0.64562027  0.79988854  0.59150463     0.05390
H1684       H  0.60775832  0.77440752  0.56367003     0.08610
H1685       H  0.59927258  0.82524220  0.58006410     0.08610
H1686       H  0.71032887  0.84755429  0.40881141     0.08600
H1687       H  0.68631647  0.89774201  0.41376958     0.08600
H1688       H  0.66060621  0.85729241  0.39442744     0.05370
C1689       C  0.46776005  0.84533522  0.80178297    -0.20430
C1690       C  0.49441293  0.84451715  0.76745497    -0.07000
C1691       C  0.51338436  0.80575835  0.76215678     0.13870
C1692       C  0.51537354  0.77878952  0.79471425    -0.20490
C1693       C  0.48973017  0.78114545  0.82869907    -0.07000
C1694       C  0.45945203  0.81121319  0.82521506     0.13860
C1695       C  0.41529538  0.80466692  0.83504121    -0.23830
H1696       H  0.44844306  0.87051161  0.80836884     0.15150
H1697       H  0.53491108  0.75326804  0.79121486     0.15170
C1698       C  0.52545851  0.78687056  0.72299201    -0.23780
H1699       H  0.39749160  0.80947837  0.80763581     0.05390
H1700       H  0.40387224  0.82612307  0.85771010     0.08610
H1701       H  0.40856914  0.77384690  0.84419363     0.08610
H1702       H  0.55582740  0.79569905  0.71308439     0.08600
H1703       H  0.50125409  0.79126699  0.70099623     0.08600
H1704       H  0.52803944  0.75396977  0.72547172     0.05370
C1705       C  0.53397658  0.94479001  0.71384085    -0.20430
C1706       C  0.53463981  0.91076724  0.73920129    -0.07000
C1707       C  0.57061014  0.90526826  0.76135025     0.13870
C1708       C  0.60159691  0.93382816  0.75933343    -0.20490
C1709       C  0.59613077  0.97148901  0.74120645    -0.07000
C1710       C  0.56507125  0.97300949  0.71238730     0.13860
C1711       C  0.56766616  0.99858883  0.67545728    -0.23830
H1712       H  0.50903914  0.94860415  0.69358792     0.15150
H1713       H  0.62744135  0.92862159  0.77753962     0.15170
C1714       C  0.57640850  0.87170145  0.78982416    -0.23780
H1715       H  0.54253852  0.99306195  0.65474741     0.05390
H1716       H  0.59536294  0.99040165  0.65820241     0.08610
H1717       H  0.56670844  0.03045261  0.68277129     0.08610
H1718       H  0.57821888  0.84306963  0.77400372     0.08600
H1719       H  0.55099486  0.87332797  0.81147184     0.08600
H1720       H  0.60471333  0.87403447  0.80690911     0.05370
C1721       C  0.46481283  0.94402833  0.77499301    -0.20430
C1722       C  0.45836785  0.91130189  0.74985987    -0.07000
C1723       C  0.41632708  0.90352341  0.74406801     0.13870
C1724       C  0.38722001  0.93458390  0.74895496    -0.20490
C1725       C  0.39672277  0.97234444  0.76486251    -0.07000
C1726       C  0.43503732  0.97294562  0.78408101     0.13860
C1727       C  0.44542242  0.00198135  0.81613999    -0.23830
H1728       H  0.49331857  0.94606311  0.78970241     0.15150
H1729       H  0.35705221  0.92853524  0.73948292     0.15170
C1730       C  0.40042482  0.86335150  0.73269549    -0.23780
H1731       H  0.42543587  0.99736328  0.84259050     0.05390
H1732       H  0.44375926  0.03270652  0.80492761     0.08610
H1733       H  0.47654975  0.99728359  0.82709059     0.08610
H1734       H  0.42438673  0.84027571  0.72986671     0.08600
H1735       H  0.38437170  0.86555933  0.70388828     0.08600
H1736       H  0.37842930  0.85339690  0.75594990     0.05370
C1737       C  0.46201762  0.87913720  0.66840136    -0.20430
C1738       C  0.49580862  0.87048081  0.69210122    -0.07000
C1739       C  0.52995230  0.85420200  0.66982698     0.13870
C1740       C  0.52310358  0.83315816  0.63453904    -0.20490
C1741       C  0.48694516  0.83722747  0.61459860    -0.07000
C1742       C  0.45635257  0.86166114  0.63129569     0.13860
C1743       C  0.41872941  0.87209194  0.60882430    -0.23830
H1744       H  0.44090378  0.90223512  0.67644339     0.15150
H1745       H  0.54767929  0.81744034  0.61981208     0.15170
C1746       C  0.57407250  0.86209121  0.67796707    -0.23780
H1747       H  0.39577531  0.88732088  0.62812766     0.05390
H1748       H  0.40494931  0.84472954  0.59705135     0.08610
H1749       H  0.42678621  0.89276546  0.58419384     0.08610
H1750       H  0.59471184  0.84614722  0.65677040     0.08600
H1751       H  0.58321754  0.85252627  0.70788847     0.08600
H1752       H  0.58049337  0.89404269  0.67351727     0.05370
C1753       C  0.52782780  0.81641530  0.15634435    -0.20430
C1754       C  0.50167641  0.78388810  0.16216935    -0.07000
C1755       C  0.47887266  0.78369678  0.19907605     0.13870
C1756       C  0.48315780  0.81483122  0.22643223    -0.20490
C1757       C  0.50977455  0.84701157  0.22059196    -0.07000
C1758       C  0.52912075  0.84909263  0.18214192     0.13860
C1759       C  0.55065199  0.88456388  0.16466168    -0.23830
H1760       H  0.54724483  0.81812579  0.13024895     0.15150
H1761       H  0.46537827  0.81323477  0.25378757     0.15170
C1762       C  0.45172195  0.75026835  0.21313511    -0.23780
H1763       H  0.53537410  0.89420075  0.13689228     0.05390
H1764       H  0.58193791  0.87627885  0.15549586     0.08610
H1765       H  0.55141595  0.91010137  0.18472645     0.08610
H1766       H  0.43095847  0.74083488  0.18975661     0.08600
H1767       H  0.43213692  0.75910748  0.23899178     0.08600
H1768       H  0.47014241  0.72470737  0.22365652     0.05370
C1769       C  0.61439874  0.93773853  0.25388279    -0.20430
C1770       C  0.59974588  0.97573892  0.26621067    -0.07000
C1771       C  0.55904785  0.97584698  0.28162716     0.13870
C1772       C  0.53761557  0.94044836  0.28429272    -0.20490
C1773       C  0.54716083  0.90704030  0.26102901    -0.07000
C1774       C  0.58912695  0.90424725  0.24918312     0.13860
C1775       C  0.61049416  0.86811328  0.23233068    -0.23830
H1776       H  0.64569687  0.93495799  0.24417796     0.15150
H1777       H  0.50887954  0.94125417  0.29998926     0.15170
C1778       C  0.53472075  0.01126476  0.29445894    -0.23780
H1779       H  0.63398604  0.85790415  0.25345883     0.05390
H1780       H  0.62659259  0.87595964  0.20405859     0.08610
H1781       H  0.59050219  0.84323096  0.22637790     0.08610
H1782       H  0.53410910  0.03403563  0.27082973     0.08600
H1783       H  0.54415397  0.02121493  0.32398874     0.08600
H1784       H  0.50274733  0.00415420  0.29911375     0.05370
C1785       C  0.43088168  0.89814754  0.24945720    -0.20430
C1786       C  0.47187190  0.90719606  0.24177535    -0.07000
C1787       C  0.47690179  0.94426374  0.22295545     0.13870
C1788       C  0.45392258  0.97577370  0.23903798    -0.20490
C1789       C  0.41284423  0.97026647  0.25113330    -0.07000
C1790       C  0.40073924  0.92890401  0.25129715     0.13860
C1791       C  0.35766505  0.91529275  0.25062455    -0.23830
H1792       H  0.42265842  0.86783447  0.25623201     0.15150
H1793       H  0.46566359  0.00494844  0.23285098     0.15170
C1794       C  0.47799390  0.94393834  0.17765416    -0.23780
H1795       H  0.35572162  0.88238095  0.25201848     0.05390
H1796       H  0.34453344  0.92394678  0.22176219     0.08610
H1797       H  0.33928933  0.92633493  0.27605672     0.08610
H1798       H  0.47239691  0.91373620  0.16591679     0.08600
H1799       H  0.50674312  0.95505458  0.16536186     0.08600
H1800       H  0.45401844  0.96298172  0.16481435     0.05370
C1801       C  0.47246641  0.87586222  0.32359587    -0.20430
C1802       C  0.50208392  0.85958016  0.29693890    -0.07000
C1803       C  0.52524536  0.82635151  0.31232073     0.13870
C1804       C  0.51854604  0.81248004  0.35175080    -0.20490
C1805       C  0.49010572  0.83036093  0.37699934    -0.07000
C1806       C  0.46505739  0.86079739  0.36193874     0.13860
C1807       C  0.43085799  0.87869438  0.38684953    -0.23830
H1808       H  0.45616797  0.90273874  0.31649685     0.15150
H1809       H  0.53822438  0.78978139  0.36427657     0.15170
C1810       C  0.56030224  0.80688769  0.29072003    -0.23780
H1811       H  0.41191129  0.89949914  0.36906938     0.05390
H1812       H  0.44260160  0.89567541  0.41233359     0.08610
H1813       H  0.41096239  0.85470744  0.39830748     0.08610
H1814       H  0.58627051  0.82685414  0.29219621     0.08600
H1815       H  0.55303739  0.79811990  0.26006100     0.08600
H1816       H  0.57013709  0.77890068  0.30564989     0.05370
C1817       C  0.21362037  0.81672840  0.53048766    -0.20430
C1818       C  0.21775441  0.84463919  0.49911290    -0.07000
C1819       C  0.19684250  0.83364604  0.46358091     0.13870
C1820       C  0.16379241  0.80849367  0.46634289    -0.20490
C1821       C  0.15506645  0.78490765  0.50035023    -0.07000
C1822       C  0.18287404  0.78792056  0.53236295     0.13860
C1823       C  0.18161612  0.76199931  0.56941851    -0.23830
H1824       H  0.23715727  0.81387138  0.55167671     0.15150
H1825       H  0.14677376  0.80593025  0.43938152     0.15170
C1826       C  0.21356081  0.83833487  0.42125369    -0.23780
H1827       H  0.17584713  0.78079450  0.59615512     0.05390
H1828       H  0.21120461  0.74653519  0.57274778     0.08610
H1829       H  0.15837805  0.73882003  0.56893477     0.08610
H1830       H  0.24683514  0.83496937  0.42065319     0.08600
H1831       H  0.20316185  0.86651809  0.40734503     0.08600
H1832       H  0.20317929  0.81427870  0.40137321     0.05370
C1833       C  0.24311922  0.93994836  0.60768110    -0.20430
C1834       C  0.24545960  0.98027320  0.59494495    -0.07000
C1835       C  0.23850236  0.98600073  0.55340286     0.13870
C1836       C  0.24082180  0.95354884  0.52792970    -0.20490
C1837       C  0.24160229  0.91250517  0.53818363    -0.07000
C1838       C  0.24333888  0.90668081  0.58097205     0.13860
C1839       C  0.24943569  0.86704097  0.60069570    -0.23830
H1840       H  0.24450091  0.93413118  0.63934255     0.15150
H1841       H  0.24879954  0.96279498  0.49868596     0.15170
C1842       C  0.22518483  0.02394899  0.53213903    -0.23780
H1843       H  0.25735662  0.86975921  0.63269604     0.05390
H1844       H  0.27534701  0.85103014  0.58646754     0.08610
H1845       H  0.22063987  0.85069689  0.60089687     0.08610
H1846       H  0.19248622  0.02934781  0.53529934     0.08600
H1847       H  0.22766034  0.02117379  0.49941729     0.08600
H1848       H  0.24325502  0.04983940  0.53778498     0.05370
C1849       C  0.27438379  0.90630502  0.43087853    -0.20430
C1850       C  0.24396831  0.90488855  0.46119845    -0.07000
C1851       C  0.20890761  0.92917355  0.45369905     0.13870
C1852       C  0.21395776  0.96333619  0.42973380    -0.20490
C1853       C  0.24885806  0.96980628  0.40543342    -0.07000
C1854       C  0.27162908  0.93397754  0.39905590     0.13860
C1855       C  0.28478073  0.91898702  0.35840398    -0.23830
H1856       H  0.29778676  0.88359706  0.42947593     0.15150
H1857       H  0.18985170  0.98457920  0.43120725     0.15170
C1858       C  0.16904823  0.92590850  0.47634975    -0.23780
H1859       H  0.26925500  0.89060682  0.35251468     0.05390
H1860       H  0.31776661  0.91275786  0.35734468     0.08610
H1861       H  0.27624617  0.93942590  0.33393286     0.08610
H1862       H  0.16210898  0.95413980  0.49228540     0.08600
H1863       H  0.16822488  0.90201688  0.49902804     0.08600
H1864       H  0.14468052  0.92050704  0.45475868     0.05370
C1865       C  0.30268027  0.82403335  0.49023328    -0.20430
C1866       C  0.29279103  0.86301094  0.50440897    -0.07000
C1867       C  0.32596901  0.88599148  0.51749490     0.13870
C1868       C  0.36365010  0.86911050  0.52113969    -0.20490
C1869       C  0.37381738  0.83370223  0.50276430    -0.07000
C1870       C  0.34307744  0.80984392  0.48784726     0.13860
C1871       C  0.35287216  0.77076564  0.46815145    -0.23830
H1872       H  0.27964795  0.80532654  0.47825415     0.15150
H1873       H  0.38737281  0.88730212  0.53268275     0.15170
C1874       C  0.32677690  0.93006422  0.51776079    -0.23780
H1875       H  0.32527679  0.75608892  0.45743844     0.05390
H1876       H  0.36773559  0.75052631  0.48986879     0.08610
H1877       H  0.37349281  0.77560953  0.44205809     0.08610
H1878       H  0.31304488  0.94204579  0.54499095     0.08600
H1879       H  0.31156546  0.93897195  0.49086767     0.08600
H1880       H  0.35749863  0.94293124  0.51520632     0.05370
C1881       C  0.84208538  0.82221536  0.50200130    -0.20430
C1882       C  0.83270034  0.78133264  0.50272167    -0.07000
C1883       C  0.79028879  0.77268199  0.50348052     0.13870
C1884       C  0.76193553  0.80317276  0.49584445    -0.20490
C1885       C  0.77082251  0.84424555  0.49707141    -0.07000
C1886       C  0.81313771  0.85302923  0.49802536     0.13860
C1887       C  0.83048963  0.89430687  0.49672424    -0.23830
H1888       H  0.87337987  0.83076025  0.50271005     0.15150
H1889       H  0.73161126  0.79325310  0.49136696     0.15170
C1890       C  0.77049762  0.73383893  0.51566999    -0.23780
H1891       H  0.84865870  0.89925610  0.52378164     0.05390
H1892       H  0.80785730  0.91826496  0.49567569     0.08610
H1893       H  0.85078215  0.89709457  0.47012929     0.08610
H1894       H  0.78962481  0.71166282  0.53054941     0.08600
H1895       H  0.75589780  0.72029606  0.48954222     0.08600
H1896       H  0.74638121  0.74013371  0.53842428     0.05370
C1897       C  0.89221628  0.78703486  0.43388370    -0.20430
C1898       C  0.89772615  0.75570134  0.46214775    -0.07000
C1899       C  0.93232632  0.73073698  0.45498020     0.13870
C1900       C  0.95889983  0.73888660  0.42311753    -0.20490
C1901       C  0.95743428  0.77384423  0.39916738    -0.07000
C1902       C  0.92241269  0.79875708  0.40559889     0.13860
C1903       C  0.91631334  0.83996740  0.38848215    -0.23830
H1904       H  0.86490616  0.80472460  0.43454851     0.15150
H1905       H  0.98331542  0.71775586  0.41753922     0.15170
C1906       C  0.94306476  0.69468352  0.47998525    -0.23780
H1907       H  0.90254238  0.85969546  0.41169033     0.05390
H1908       H  0.94453847  0.85487459  0.38047510     0.08610
H1909       H  0.89520686  0.83953820  0.36315388     0.08610
H1910       H  0.92146013  0.67056248  0.47476960     0.08600
H1911       H  0.94500687  0.70243487  0.51196690     0.08600
H1912       H  0.97289429  0.68170910  0.47154936     0.05370
C1913       C  0.93034720  0.78438480  0.53438674    -0.20430
C1914       C  0.89650381  0.75981265  0.53937607    -0.07000
C1915       C  0.88895816  0.74809482  0.58026541     0.13870
C1916       C  0.92138229  0.74640783  0.60762612    -0.20490
C1917       C  0.95583428  0.77028463  0.60194145    -0.07000
C1918       C  0.95557562  0.79412693  0.56594922     0.13860
C1919       C  0.97774961  0.83266864  0.55980682    -0.23830
H1920       H  0.93523478  0.80000440  0.50648180     0.15150
H1921       H  0.91699253  0.73042332  0.63537955     0.15170
C1922       C  0.84789811  0.73765136  0.59664652    -0.23780
H1923       H  0.00182196  0.82889476  0.53669152     0.05390
H1924       H  0.99008684  0.84501128  0.58723010     0.08610
H1925       H  0.95629769  0.85591774  0.54914424     0.08610
H1926       H  0.84720426  0.70612197  0.60656936     0.08600
H1927       H  0.82427896  0.74346528  0.57476288     0.08600
H1928       H  0.84066088  0.75676059  0.62284934     0.05370
C1929       C  0.86556103  0.67892161  0.52859673    -0.20430
C1930       C  0.85490906  0.70641255  0.49852813    -0.07000
C1931       C  0.83360625  0.69036439  0.46509470     0.13870
C1932       C  0.82396616  0.64945444  0.46433355    -0.20490
C1933       C  0.83382740  0.62402340  0.49603795    -0.07000
C1934       C  0.85382576  0.63961458  0.52876707     0.13860
C1935       C  0.86941779  0.61310818  0.56110815    -0.23830
H1936       H  0.88784498  0.68547843  0.55006866     0.15150
H1937       H  0.80975555  0.63715614  0.43828460     0.15170
C1938       C  0.82093610  0.71431566  0.42906915    -0.23780
H1939       H  0.88271733  0.62963110  0.58625759     0.05390
H1940       H  0.89345713  0.59547479  0.54629749     0.08610
H1941       H  0.84504391  0.59401766  0.57341045     0.08610
H1942       H  0.82479968  0.74650818  0.43233388     0.08600
H1943       H  0.78834954  0.70975829  0.42365829     0.08600
H1944       H  0.83848101  0.70417723  0.40231762     0.05370
C1945       C  0.81954283  0.50693895  0.84710860    -0.20430
C1946       C  0.77944047  0.50719209  0.83438778    -0.07000
C1947       C  0.77427901  0.51561871  0.79207032     0.13870
C1948       C  0.80820440  0.51645659  0.76590812    -0.20490
C1949       C  0.84809401  0.50971283  0.77789751    -0.07000
C1950       C  0.85307722  0.51096010  0.82076863     0.13860
C1951       C  0.89196936  0.52030163  0.84109596    -0.23830
H1952       H  0.82446664  0.50537687  0.87906585     0.15150
H1953       H  0.80302968  0.52416874  0.73515106     0.15170
C1954       C  0.73521915  0.52782302  0.77201855    -0.23780
H1955       H  0.88911650  0.51937483  0.87424745     0.05390
H1956       H  0.90086330  0.55106705  0.83365341     0.08610
H1957       H  0.91560731  0.49870198  0.83356048     0.08610
H1958       H  0.72120853  0.55395883  0.78676520     0.08600
H1959       H  0.71460715  0.50261967  0.76949947     0.08600
H1960       H  0.73982300  0.53771729  0.74053978     0.05370
C1961       C  0.90623362  0.44054209  0.78172142    -0.20430
C1962       C  0.90808429  0.46454540  0.74678420    -0.07000
C1963       C  0.93615521  0.45008422  0.71637111     0.13870
C1964       C  0.96245639  0.41869187  0.72449188    -0.20490
C1965       C  0.96636713  0.40077186  0.76193981    -0.07000
C1966       C  0.93805345  0.41409014  0.79227701     0.13860
C1967       C  0.94230280  0.40819105  0.83679648    -0.23830
H1968       H  0.88305593  0.44561315  0.80404183     0.15150
H1969       H  0.98254080  0.40852386  0.70083732     0.15170
C1970       C  0.94244937  0.46627077  0.67484347    -0.23780
H1971       H  0.93636191  0.43652773  0.85273925     0.05390
H1972       H  0.97310652  0.39999281  0.84577695     0.08610
H1973       H  0.91959823  0.38670073  0.84799095     0.08610
H1974       H  0.95295026  0.49697082  0.67663756     0.08600
H1975       H  0.91516616  0.46128411  0.65723087     0.08600
H1976       H  0.96674823  0.45111667  0.65709000     0.05370
C1977       C  0.89549864  0.58156041  0.74298535    -0.20430
C1978       C  0.91033545  0.54277878  0.75297489    -0.07000
C1979       C  0.94837830  0.54256183  0.77166940     0.13870
C1980       C  0.96250887  0.57890498  0.78449463    -0.20490
C1981       C  0.96013167  0.61266064  0.75997419    -0.07000
C1982       C  0.92363661  0.61286159  0.73643976     0.13860
C1983       C  0.91441098  0.63785807  0.69983733    -0.23830
H1984       H  0.86566179  0.58437782  0.73036151     0.15150
H1985       H  0.97814837  0.57832893  0.81125852     0.15170
C1986       C  0.97709986  0.50801681  0.77674323    -0.23780
H1987       H  0.88945469  0.65915755  0.70630922     0.05390
H1988       H  0.94049441  0.65222536  0.68558827     0.08610
H1989       H  0.90349836  0.61860219  0.67558614     0.08610
H1990       H  0.98555162  0.49549975  0.74737786     0.08600
H1991       H  0.96662178  0.48523435  0.79772967     0.08600
H1992       H  0.00575543  0.51818928  0.78889741     0.05370
C1993       C  0.88737429  0.53353127  0.67153244    -0.20430
C1994       C  0.86745924  0.50828125  0.69969479    -0.07000
C1995       C  0.83896021  0.48154314  0.68272648     0.13870
C1996       C  0.82926078  0.48472859  0.64152996    -0.20490
C1997       C  0.85314775  0.50713220  0.61457350    -0.07000
C1998       C  0.88581414  0.52781788  0.63034891     0.13860
C1999       C  0.92463915  0.53488643  0.60668069    -0.23830
H2000       H  0.91247984  0.55076985  0.68027293     0.15150
H2001       H  0.80584630  0.46614348  0.62972766     0.15170
C2002       C  0.81964378  0.44790971  0.70580418    -0.23780
H2003       H  0.94838867  0.54881961  0.62466495     0.05390
H2004       H  0.92064764  0.55412017  0.58095486     0.08610
H2005       H  0.93699301  0.50597051  0.59588277     0.08610
H2006       H  0.78634324  0.45225278  0.70672696     0.08600
H2007       H  0.83027019  0.44492109  0.73679690     0.08600
H2008       H  0.82689844  0.41938439  0.69058056     0.05370
C2009       C  0.77249417  0.49365508  0.19224244    -0.20430
C2010       C  0.78298262  0.50671330  0.15320340    -0.07000
C2011       C  0.82560132  0.51120038  0.14620256     0.13870
C2012       C  0.85183861  0.51366326  0.17902340    -0.20490
C2013       C  0.83900210  0.50867797  0.21932982    -0.07000
C2014       C  0.79931944  0.49221119  0.22416077     0.13860
C2015       C  0.78519348  0.46675269  0.25917037    -0.23830
H2016       H  0.74299273  0.48165082  0.19820445     0.15150
H2017       H  0.88361329  0.51904783  0.17315636     0.15170
C2018       C  0.84564329  0.51121855  0.10529391    -0.23780
H2019       H  0.75699337  0.45055391  0.25299010     0.05390
H2020       H  0.77757713  0.48472528  0.28582883     0.08610
H2021       H  0.80779841  0.44300813  0.26506331     0.08610
H2022       H  0.84201077  0.54019204  0.09022859     0.08600
H2023       H  0.83499725  0.48634034  0.08697677     0.08600
H2024       H  0.87881457  0.50655554  0.10729498     0.05370
C2025       C  0.89724346  0.44533373  0.22331395    -0.20430
C2026       C  0.90594453  0.48009176  0.24512232    -0.07000
C2027       C  0.94447466  0.47934391  0.26320799     0.13870
C2028       C  0.96336923  0.44286116  0.27018068    -0.20490
C2029       C  0.96080887  0.41169331  0.24203737    -0.07000
C2030       C  0.92589620  0.41432509  0.21694060     0.13860
C2031       C  0.91507123  0.38561052  0.18486296    -0.23830
H2032       H  0.86810359  0.44209985  0.20991906     0.15150
H2033       H  0.98766393  0.44272707  0.29143333     0.15170
C2034       C  0.97466944  0.51200336  0.25720764    -0.23780
H2035       H  0.88799774  0.39537957  0.16809905     0.05390
H2036       H  0.90652842  0.35728494  0.19880885     0.08610
H2037       H  0.93920980  0.38335846  0.16179821     0.08610
H2038       H  0.98314506  0.52527070  0.28604039     0.08600
H2039       H  0.96417231  0.53403700  0.23511323     0.08600
H2040       H  0.00320538  0.50033165  0.24403116     0.05370
C2041       C  0.88791902  0.58314199  0.22317767    -0.20430
C2042       C  0.89213219  0.55554273  0.25484230    -0.07000
C2043       C  0.91680755  0.56865683  0.28704095     0.13870
C2044       C  0.94414505  0.59957522  0.28008999    -0.20490
C2045       C  0.94553670  0.62278564  0.24474870    -0.07000
C2046       C  0.91365831  0.61593675  0.21712960     0.13860
C2047       C  0.90296240  0.64262994  0.18242678    -0.23830
H2048       H  0.86333390  0.58022658  0.20296840     0.15150
H2049       H  0.96570749  0.60588423  0.30313888     0.15170
C2050       C  0.91821715  0.54983888  0.32845038    -0.23780
H2051       H  0.87811885  0.63060614  0.16439537     0.05390
H2052       H  0.92805434  0.64665624  0.16079183     0.08610
H2053       H  0.89111385  0.67093988  0.19426480     0.08610
H2054       H  0.89092842  0.55820809  0.34602989     0.08600
H2055       H  0.94385898  0.56076677  0.34609117     0.08600
H2056       H  0.92200864  0.51722444  0.32750661     0.05370
C2057       C  0.85667807  0.47116436  0.31619095    -0.20430
C2058       C  0.85067703  0.50700397  0.29475138    -0.07000
C2059       C  0.82491750  0.53664431  0.31316040     0.13870
C2060       C  0.81457025  0.53302427  0.35403261    -0.20490
C2061       C  0.82515759  0.49893990  0.37567089    -0.07000
C2062       C  0.84178887  0.46613920  0.35510283     0.13860
C2063       C  0.84247575  0.42497244  0.37266314    -0.23830
H2064       H  0.87166486  0.44591726  0.30236800     0.15150
H2065       H  0.79986855  0.55770049  0.36942208     0.15170
C2066       C  0.80887506  0.57297524  0.29180320    -0.23780
H2067       H  0.82300171  0.40560229  0.35466212     0.05390
H2068       H  0.83078875  0.42422836  0.40396177     0.08610
H2069       H  0.87358393  0.41256001  0.37087301     0.08610
H2070       H  0.77564501  0.57506100  0.29658224     0.08600
H2071       H  0.81401928  0.57225689  0.25913915     0.08600
H2072       H  0.82284935  0.60003830  0.30404602     0.05370
C2073       C  0.85971710  0.18748063  0.50984268    -0.20430
C2074       C  0.84791105  0.22553791  0.49630508    -0.07000
C2075       C  0.81027660  0.22758523  0.47579669     0.13870
C2076       C  0.78592311  0.19360276  0.47484355    -0.20490
C2077       C  0.79224726  0.16011175  0.49972866    -0.07000
C2078       C  0.83191252  0.15651790  0.51602005     0.13860
C2079       C  0.84686336  0.12200502  0.54101507    -0.23830
H2080       H  0.89054310  0.18321932  0.51943277     0.15150
H2081       H  0.75917963  0.19486310  0.45701298     0.15170
C2082       C  0.79582818  0.26292412  0.45124500    -0.23780
H2083       H  0.83167963  0.12235616  0.57062756     0.05390
H2084       H  0.87962749  0.12396423  0.54712301     0.08610
H2085       H  0.84296836  0.09303820  0.52669785     0.08610
H2086       H  0.82039460  0.27555828  0.43242026     0.08600
H2087       H  0.78212591  0.28607443  0.47066589     0.08600
H2088       H  0.77180934  0.25450550  0.43027209     0.05370
C2089       C  0.92606079  0.23014353  0.60263125    -0.20430
C2090       C  0.95737282  0.25824913  0.60429577    -0.07000
C2091       C  0.95126316  0.29421569  0.58168115     0.13870
C2092       C  0.91876501  0.29694960  0.55519998    -0.20490
C2093       C  0.89600762  0.26318725  0.54514447    -0.07000
C2094       C  0.89329625  0.23484328  0.57694420     0.13860
C2095       C  0.85489742  0.21517477  0.59120102    -0.23830
H2096       H  0.92619705  0.20374057  0.62084811     0.15150
H2097       H  0.91720517  0.32313345  0.53637302     0.15170
C2098       C  0.98089780  0.32834254  0.58027909    -0.23780
H2099       H  0.84688595  0.22618544  0.62162154     0.05390
H2100       H  0.85975855  0.18265961  0.59362738     0.08610
H2101       H  0.82858380  0.22163499  0.57243189     0.08610
H2102       H  0.00871239  0.31970379  0.56346811     0.08600
H2103       H  0.98880772  0.33893591  0.61024798     0.08600
H2104       H  0.96833132  0.35461670  0.56428914     0.05370
C2105       C  0.95385684  0.26935790  0.47574024    -0.20430
C2106       C  0.91597936  0.25139970  0.46912782    -0.07000
C2107       C  0.91158397  0.23736930  0.42863228     0.13870
C2108       C  0.94050679  0.24714903  0.39857536    -0.20490
C2109       C  0.97733187  0.26627653  0.40628061    -0.07000
C2110       C  0.98062377  0.28144961  0.44527811     0.13860
C2111       C  0.00032526  0.32049859  0.45300604    -0.23830
H2112       H  0.96296506  0.27863151  0.50431541     0.15150
H2113       H  0.93553685  0.23711727  0.36838514     0.15170
C2114       C  0.88120947  0.20700148  0.41579047    -0.23780
H2115       H  0.02944905  0.31576989  0.46789075     0.05390
H2116       H  0.98136178  0.33916435  0.47350833     0.08610
H2117       H  0.00225400  0.33815249  0.42515751     0.08610
H2118       H  0.85117862  0.22032034  0.41170502     0.08600
H2119       H  0.88092148  0.18115864  0.43633575     0.08600
H2120       H  0.88914091  0.19400488  0.38615077     0.05370
C2121       C  0.87843343  0.32726069  0.46375739    -0.20430
C2122       C  0.86012383  0.30211653  0.49280621    -0.07000
C2123       C  0.83026512  0.32032532  0.51892873     0.13870
C2124       C  0.82244883  0.36147502  0.51618847    -0.20490
C2125       C  0.84687113  0.38596398  0.49250522    -0.07000
C2126       C  0.87619829  0.36852430  0.46678362     0.13860
C2127       C  0.90881449  0.39239864  0.44592032    -0.23830
H2128       H  0.89885444  0.31577518  0.44114508     0.15150
H2129       H  0.79988606  0.37521632  0.53574164     0.15170
C2130       C  0.80752866  0.29821232  0.55141416    -0.23780
H2131       H  0.93090116  0.40193385  0.46839592     0.05390
H2132       H  0.89644370  0.41935953  0.43154184     0.08610
H2133       H  0.92549354  0.37486500  0.42273772     0.08610
H2134       H  0.79300762  0.27149263  0.53966186     0.08600
H2135       H  0.78288262  0.31671349  0.56490874     0.08600
H2136       H  0.82794555  0.29063219  0.57612691     0.05370
loop_ 
_geom_bond_atom_site_label_1 
_geom_bond_atom_site_label_2 
_geom_bond_distance 
_geom_bond_site_symmetry_2 
_ccdc_geom_bond_type 
C1         C2074   1.567       .  S
C1         C2093   1.606       .  S
C1         C2106   1.620       .  S
C1         C2122   1.573       .  S
C2         C2013   1.595       .  S
C2         C2026   1.596       .  S
C2         C2042   1.591       .  S
C2         C2058   1.551       .  S
C3         C1949   1.607       .  S
C3         C1962   1.599       .  S
C3         C1978   1.573       .  S
C3         C1994   1.601       .  S
C4         C1882   1.589       .  S
C4         C1898   1.600       .  S
C4         C1914   1.609       .  S
C4         C1930   1.572       .  S
O5           V13   1.887       .  S
O5           C15   1.261       .  A
O6           V13   1.892       .  S
O6           C16   1.263       .  A
O7           V13   1.876       .  S
O7           C17   1.258       .  A
O8           V13   1.887       .  S
O8           C18   1.261       .  A
O9           V14   1.921       .  S
O9           C18   1.268       .  A
O10          V14   1.912       .  S
O10          C17   1.268       .  A
O11          V14   1.923       .  S
O11          C16   1.269       .  A
O12          V14   1.914       .  S
O12          C15   1.266       .  A
V13          V14   2.082       .  T
C15        C2061   1.470       .  S
C16        C1997   1.497       .  S
C17        C2125   1.474       .  S
C18        C1933   1.478       .  S
C19        C1818   1.599       .  S
C19        C1837   1.645       .  S
C19        C1850   1.583       .  S
C19        C1866   1.572       .  S
C20        C1757   1.567       .  S
C20        C1773   1.594       .  S
C20        C1786   1.597       .  S
C20        C1802   1.595       .  S
C21        C1690   1.628       .  S
C21        C1706   1.591       .  S
C21        C1722   1.612       .  S
C21        C1738   1.585       .  S
C22        C1642   1.595       .  S
C22        C1658   1.625       .  S
C22        C1674   1.572       .  S
C22        C1885   1.605       .  S
O23          V31   1.856       .  S
O23          C33   1.253       .  A
O24          V31   1.856       .  S
O24          C34   1.252       .  A
O25          V31   1.880       .  S
O25          C35   1.261       .  A
O26          V31   1.868       .  S
O26          C36   1.265       .  A
O27          V32   1.905       .  S
O27          C36   1.260       .  A
O28          V32   1.904       .  S
O28          C35   1.264       .  A
O29          V32   1.921       .  S
O29          C34   1.271       .  A
O30          V32   1.929       .  S
O30          C33   1.272       .  A
V31          V32   2.085       .  T
C33        C1805   1.469       .  S
C34        C1741   1.460       .  S
C35        C1677   1.459       .  S
C36        C1869   1.468       .  S
C37        C1578   1.583       .  S
C37        C1594   1.577       .  S
C37        C1610   1.593       .  S
C37        C1629   1.584       .  S
C38        C1514   1.579       .  S
C38        C1533   1.606       .  S
C38        C1546   1.627       .  S
C38        C1565   1.559       .  S
C39        C1466   1.631       .  S
C39        C1482   1.635       .  S
C39        C1498   1.559       .  S
C39        C1946   1.586       .  S
C40        C1418   1.585       .  S
C40        C1434   1.594       .  S
C40        C1450   1.578       .  S
C40        C1693   1.592       .  S
O41          V49   1.843       .  S
O41          C51   1.250       .  A
O42          V49   1.864       .  S
O42          C52   1.254       .  A
O43          V49   1.900       .  S
O43          C53   1.265       .  A
O44          V49   1.897       .  S
O44          C54   1.265       .  A
O45          V50   1.896       .  S
O45          C54   1.261       .  A
O46          V50   1.900       .  S
O46          C53   1.262       .  A
O47          V50   1.918       .  S
O47          C52   1.269       .  A
O48          V50   1.913       .  S
O48          C51   1.268       .  A
V49          V50   2.088       .  T
C51        C1562   1.471       .  S
C52        C1501   1.459       .  S
C53        C1453   1.469       .  S
C54        C1626   1.467       .  S
C55        C1370   1.581       .  S
C55        C1386   1.589       .  S
C55        C1402   1.555       .  S
C55        C1725   1.614   1_545  S
C56        C1322   1.577       .  S
C56        C1338   1.604       .  S
C56        C1354   1.604       .  S
C56        C1437   1.612   1_554  S
C57        C1274   1.593   1_554  S
C57        C1290   1.600       .  S
C57        C1306   1.576       .  S
C57        C1613   1.598   1_554  S
C58        C1226   1.573       .  S
C58        C1242   1.604       .  S
C58        C1261   1.573       .  S
C58        C1789   1.606   1_545  S
O59          V67   1.903   1_566  S
O59          C69   1.262   1_565  A
O60          V67   1.901       .  S
O60          C70   1.264       .  A
O61          V67   1.943       .  S
O61          C71   1.274       .  A
O62          V67   1.943   1_565  S
O62          C72   1.275       .  A
O63          V68   1.849   1_556  S
O63          C72   1.251   1_556  A
O64          V68   1.861   1_545  S
O64          C71   1.259       .  A
O65          V68   1.865       .  S
O65          C70   1.257   1_565  A
O66          V68   1.855   1_546  S
O66          C69   1.256       .  A
V67          V68   2.081   1_545  T
C69        C1405   1.447       .  S
C70        C1258   1.470       .  S
C71        C1309   1.501       .  S
C72        C1357   1.494       .  S
C73        C1178   1.599       .  S
C73        C1194   1.589   1_655  S
C73        C1210   1.609   1_655  S
C73        C1981   1.607       .  S
C74        C1133   1.580       .  S
C74        C1146   1.600   1_556  S
C74        C1162   1.573       .  S
C74        C1485   1.627       .  S
C75        C1098   1.588   1_556  S
C75        C1114   1.583       .  S
C75        C1325   1.628       .  S
C75        C1530   1.598       .  S
C76        C1053   1.594       .  S
C76        C1066   1.614   1_655  S
C76        C1085   1.590       .  S
C76        C2045   1.581       .  S
O77          V85   1.919   1_455  S
O77          C87   1.267       .  A
O78          V85   1.928   1_554  S
O78          C88   1.271   1_655  A
O79          V85   1.925   1_454  S
O79          C89   1.270   1_554  A
O80          V85   1.930       .  S
O80          C90   1.269   1_556  A
O81          V86   1.858   1_655  S
O81          C90   1.259       .  A
O82          V86   1.866   1_556  S
O82          C89   1.257       .  A
O83          V86   1.872       .  S
O83          C88   1.258       .  A
O84          V86   1.866   1_656  S
O84          C87   1.262   1_655  A
V85          V86   2.078   1_656  T
C87        C1213   1.484       .  S
C88        C1082   1.476       .  S
C89        C1117   1.467       .  S
C90        C1165   1.489   1_554  S
C91        C1018   1.614   1_556  S
C91        C1034   1.623       .  S
C91        C1130   1.570       .  S
C91        C1421   1.583       .  S
C92         C973   1.615       .  S
C92         C989   1.611       .  S
C92        C1005   1.597       .  S
C92        C1709   1.588   1_545  S
C93         C922   1.618       .  S
C93         C938   1.602       .  S
C93         C954   1.611       .  S
C93        C1597   1.602   1_554  S
C94         C874   1.626       .  S
C94         C890   1.613       .  S
C94         C909   1.611       .  S
C94        C1770   1.594   1_545  S
O95         V103   1.934   1_556  S
O95         C105   1.269       .  A
O96         V103   1.933       .  S
O96         C106   1.271       .  A
O97         V103   1.932   1_565  S
O97         C107   1.272       .  A
O98         V103   1.925       .  S
O98         C108   1.269       .  A
O99         V104   1.864       .  S
O99         C108   1.257       .  A
O100        V104   1.867   1_565  S
O100        C107   1.255       .  A
O101        V104   1.885       .  S
O101        C106   1.263       .  A
O102        V104   1.883   1_556  S
O102        C105   1.265       .  A
V103        V104   2.082       .  T
C105       C1002   1.496       .  S
C106        C906   1.506       .  S
C107       C1037   1.499   1_554  S
C108        C957   1.472       .  S
C109        C829   1.616       .  S
C109        C845   1.606       .  S
C109        C858   1.598       .  S
C109       C1101   1.616       .  S
C110        C797   1.585       .  S
C110        C810   1.577       .  S
C110        C941   1.602       .  S
C110       C1293   1.627       .  S
C111        C778   1.575       .  S
C111       C1021   1.607       .  S
C111       C1341   1.589       .  S
C111       C1754   1.575       .  S
C112        C749   1.583       .  S
C112        C762   1.585       .  S
C112       C1149   1.585       .  S
C112       C2010   1.595       .  S
O113        V121   1.936       .  S
O113        C123   1.272       .  A
O114        V121   1.923       .  S
O114        C124   1.269       .  A
O115        V121   1.905       .  S
O115        C125   1.263       .  A
O116        V121   1.894       .  S
O116        C126   1.262       .  A
O117        V122   1.880       .  S
O117        C126   1.259       .  A
O118        V122   1.881       .  S
O118        C125   1.261       .  A
O119        V122   1.883       .  S
O119        C124   1.260       .  A
O120        V122   1.889       .  S
O120        C123   1.264       .  A
V121        V122   2.085       .  T
C123        C861   1.496       .  S
C124        C765   1.480       .  S
C125        C781   1.461       .  S
C126        C813   1.452       .  S
C127        C730   1.586       .  S
C127        C746   1.590   1_556  S
C127        C925   1.573   1_556  S
C127       C1469   1.619       .  S
C128        C685   1.587   1_455  S
C128        C701   1.593       .  S
C128        C717   1.551       .  S
C128       C1965   1.578   1_455  S
C129        C666   1.607       .  S
C129        C842   1.597   1_556  S
C129       C1277   1.620       .  S
C129       C1549   1.603       .  S
C130        C618   1.588   1_655  S
C130        C634   1.601   1_655  S
C130        C653   1.583   1_655  S
C130       C2029   1.590       .  S
O131        V139   1.886   1_556  S
O131        C141   1.256       .  A
O132        V139   1.888       .  S
O132        C142   1.257       .  A
O133        V139   1.939   1_655  S
O133        C143   1.276       .  A
O134        V139   1.944       .  S
O134        C144   1.277   1_554  A
O135        V140   1.859   1_556  S
O135        C144   1.253       .  A
O136        V140   1.852   1_655  S
O136        C143   1.250       .  A
O137        V140   1.893       .  S
O137        C142   1.265       .  A
O138        V140   1.903   1_556  S
O138        C141   1.268       .  A
V139        V140   2.085       .  T
C141        C714   1.459       .  S
C142        C650   1.460       .  S
C143        C733   1.493       .  S
C144        C669   1.482       .  S
C145        C586   1.596   1_565  S
C145        C605   1.614   1_565  S
C145        C970   1.620   1_565  S
C145       C1661   1.597       .  S
C146        C554   1.575   1_655  S
C146        C573   1.568       .  S
C146       C1181   1.605       .  S
C146       C1917   1.590       .  S
C147        C522   1.586   1_655  S
C147        C541   1.574       .  S
C147        C682   1.591       .  S
C147       C2090   1.574       .  S
C148        C490   1.612       .  S
C148        C509   1.595       .  S
C148       C1373   1.581       .  S
C148       C1834   1.587   1_545  S
O149        V157   1.928       .  S
O149        C159   1.271       .  A
O150        V157   1.930   1_655  S
O150        C160   1.269       .  A
O151        V157   1.901   1_565  S
O151        C161   1.263   1_455  A
O152        V157   1.907   1_655  S
O152        C162   1.265       .  A
O153        V158   1.877       .  S
O153        C162   1.259       .  A
O154        V158   1.868   1_565  S
O154        C161   1.258       .  A
O155        V158   1.873       .  S
O155        C160   1.261       .  A
O156        V158   1.877   1_455  S
O156        C159   1.258       .  A
V157        V158   2.085   1_455  T
C159        C506   1.493       .  S
C160        C602   1.481       .  S
C161        C570   1.451       .  S
C162        C538   1.463   1_655  S
C163        C445   1.564       .  S
C163        C458   1.609       .  S
C163        C477   1.579       .  S
C163        C525   1.594       .  S
C164        C429   1.569       .  S
C164        C637   1.612       .  S
C164        C826   1.597       .  S
C164       C1069   1.628       .  S
C165        C410   1.583       .  S
C165        C698   1.587       .  S
C165       C1197   1.619       .  S
C165       C1517   1.588       .  S
C166        C381   1.580       .  S
C166        C394   1.576       .  S
C166        C557   1.602       .  S
C166       C1821   1.576       .  S
O167        V175   1.873       .  S
O167        C177   1.257       .  A
O168        V175   1.866       .  S
O168        C178   1.261       .  A
O169        V175   1.846       .  S
O169        C179   1.256       .  A
O170        V175   1.852       .  S
O170        C180   1.251       .  A
O171        V176   1.926       .  S
O171        C180   1.272       .  A
O172        V176   1.921       .  S
O172        C179   1.268       .  A
O173        V176   1.924       .  S
O173        C178   1.267       .  A
O174        V176   1.924       .  S
O174        C177   1.271       .  A
V175        V176   2.079       .  T
C177        C426   1.493       .  S
C178        C413   1.480       .  S
C179        C397   1.472       .  S
C180        C474   1.485       .  S
C181        C349   1.625       .  S
C181        C362   1.582       .  S
C181        C442   1.565       .  S
C181        C493   1.626       .  S
C182        C330   1.555       .  S
C182        C794   1.612       .  S
C182        C893   1.618       .  S
C182       C1245   1.603       .  S
C183        C314   1.561       .  S
C183        C986   1.593       .  S
C183       C1389   1.569       .  S
C183       C1581   1.605       .  S
C184        C282   1.611       .  S
C184        C298   1.565       .  S
C184        C589   1.607       .  S
C184       C2077   1.572       .  S
O185        V193   1.887       .  S
O185        C195   1.264       .  A
O186        V193   1.883       .  S
O186        C196   1.263       .  A
O187        V193   1.858       .  S
O187        C197   1.253       .  A
O188        V193   1.850       .  S
O188        C198   1.249       .  A
O189        V194   1.924       .  S
O189        C198   1.273       .  A
O190        V194   1.935       .  S
O190        C197   1.274       .  A
O191        V194   1.879       .  S
O191        C196   1.256       .  A
O192        V194   1.888       .  S
O192        C195   1.257       .  A
V193        V194   2.087       .  T
C195        C333   1.451       .  S
C196        C317   1.448       .  S
C197        C365   1.471       .  S
C198        C301   1.483       .  S
C199        C269   1.585   1_655  S
C199        C378   1.581   1_655  S
C199       C1050   1.609       .  S
C199       C1901   1.599       .  S
C200        C250   1.564   1_545  S
C200        C285   1.614       .  S
C200        C877   1.609       .  S
C200       C1645   1.583   1_545  S
C201        C237   1.598       .  S
C201        C346   1.601       .  S
C201       C1229   1.601       .  S
C201       C1853   1.601   1_545  S
C202        C218   1.598       .  S
C202        C461   1.604       .  S
C202        C621   1.567       .  S
C202       C2109   1.598   1_455  S
O203        V211   1.883       .  S
O203        C213   1.264       .  A
O204        V211   1.871   1_655  S
O204        C214   1.260       .  A
O205        V211   1.867   1_565  S
O205        C215   1.257       .  A
O206        V211   1.867       .  S
O206        C216   1.254       .  A
O207        V212   1.931       .  S
O207        C216   1.273       .  A
O208        V212   1.931   1_565  S
O208        C215   1.271       .  A
O209        V212   1.907   1_655  S
O209        C214   1.263       .  A
O210        V212   1.922       .  S
O210        C213   1.266       .  A
V211        V212   2.086       .  T
C213        C234   1.484       .  S
C214        C253   1.459       .  S
C215        C266   1.473       .  S
C216        C221   1.495       .  S
C217        C218   1.420       .  A
C217        C222   1.393       .  A
C217        H224   1.084       .  S
C218        C219   1.438       .  A
C219        C226   1.506   1_455  S
C219        C220   1.417       .  A
C220        C221   1.402       .  A
C220        H225   1.084   1_455  S
C221        C222   1.419       .  A
C222        C223   1.514       .  S
C223        H227   1.111       .  S
C223        H228   1.111       .  S
C223        H229   1.110   1_455  S
C226        H230   1.103   1_655  S
C226        H231   1.108       .  S
C226        H232   1.111       .  S
C233        C234   1.387       .  A
C233        C238   1.394       .  A
C233        H240   1.088       .  S
C234        C235   1.406       .  A
C235        C242   1.503   1_545  S
C235        C236   1.416       .  A
C236        C237   1.425       .  A
C236        H241   1.080   1_545  S
C237        C238   1.457       .  A
C238        C239   1.522       .  S
C239        H243   1.112       .  S
C239        H244   1.110       .  S
C239        H245   1.091       .  S
C242        H246   1.110       .  S
C242        H247   1.107       .  S
C242        H248   1.111       .  S
C249        C250   1.425   1_545  A
C249        C254   1.401       .  A
C249        H256   1.084       .  S
C250        C251   1.451       .  A
C251        C258   1.519       .  S
C251        C252   1.395       .  A
C252        C253   1.388   1_565  A
C252        H257   1.088       .  S
C253        C254   1.397       .  A
C254        C255   1.505       .  S
C255        H259   1.111       .  S
C255        H260   1.110       .  S
C255        H261   1.111       .  S
C258        H262   1.089       .  S
C258        H263   1.113       .  S
C258        H264   1.109       .  S
C265        C266   1.407   1_655  A
C265        C270   1.423       .  A
C265        H272   1.083       .  S
C266        C267   1.397       .  A
C267        C274   1.514       .  S
C267        C268   1.386       .  A
C268        C269   1.429       .  A
C268        H273   1.077       .  S
C269        C270   1.432   1_455  A
C270        C271   1.506       .  S
C271        H275   1.110       .  S
C271        H276   1.104       .  S
C271        H277   1.107       .  S
C274        H278   1.108       .  S
C274        H279   1.107       .  S
C274        H280   1.111       .  S
C281        C282   1.399       .  A
C281        C286   1.405       .  A
C281        H288   1.065       .  S
C282        C283   1.438       .  A
C283        C290   1.509       .  S
C283        C284   1.424       .  A
C284        C285   1.420       .  A
C284        H289   1.078       .  S
C285        C286   1.443       .  A
C286        C287   1.506       .  S
C287        H291   1.095   1_545  S
C287        H292   1.111       .  S
C287        H293   1.104       .  S
C290        H294   1.099       .  S
C290        H295   1.110       .  S
C290        H296   1.111       .  S
C297        C298   1.410       .  A
C297        C302   1.389       .  A
C297        H304   1.082       .  S
C298        C299   1.444       .  A
C299        C306   1.513       .  S
C299        C300   1.407       .  A
C300        C301   1.397       .  A
C300        H305   1.085       .  S
C301        C302   1.421       .  A
C302        C303   1.515       .  S
C303        H307   1.111       .  S
C303        H308   1.111       .  S
C303        H309   1.110       .  S
C306        H310   1.110       .  S
C306        H311   1.096       .  S
C306        H312   1.111       .  S
C313        C314   1.413       .  A
C313        C318   1.403       .  A
C313        H320   1.083       .  S
C314        C315   1.444       .  A
C315        C322   1.514       .  S
C315        C316   1.383       .  A
C316        C317   1.383       .  A
C316        H321   1.088       .  S
C317        C318   1.406       .  A
C318        C319   1.505       .  S
C319        H323   1.111       .  S
C319        H324   1.110       .  S
C319        H325   1.111       .  S
C322        H326   1.088       .  S
C322        H327   1.110       .  S
C322        H328   1.112       .  S
C329        C330   1.428       .  A
C329        C334   1.397       .  A
C329        H336   1.083       .  S
C330        C331   1.434       .  A
C331        C338   1.507       .  S
C331        C332   1.395       .  A
C332        C333   1.388       .  A
C332        H337   1.078       .  S
C333        C334   1.397       .  A
C334        C335   1.506       .  S
C335        H339   1.111       .  S
C335        H340   1.111       .  S
C335        H341   1.110       .  S
C338        H342   1.111       .  S
C338        H343   1.104       .  S
C338        H344   1.103       .  S
C345        C346   1.420       .  A
C345        C350   1.432       .  A
C345        H352   1.081       .  S
C346        C347   1.423       .  A
C347        C354   1.477       .  S
C347        C348   1.400       .  A
C348        C349   1.404       .  A
C348        H353   1.059       .  S
C349        C350   1.450       .  A
C350        C351   1.503       .  S
C351        H355   1.111       .  S
C351        H356   1.106       .  S
C351        H357   1.098       .  S
C354        H358   1.074   1_545  S
C354        H359   1.103       .  S
C354        H360   1.109       .  S
C361        C362   1.414       .  A
C361        C366   1.384       .  A
C361        H368   1.074       .  S
C362        C363   1.437       .  A
C363        C370   1.504       .  S
C363        C364   1.417       .  A
C364        C365   1.398       .  A
C364        H369   1.084       .  S
C365        C366   1.408       .  A
C366        C367   1.508       .  S
C367        H371   1.110       .  S
C367        H372   1.111       .  S
C367        H373   1.098       .  S
C370        H374   1.107       .  S
C370        H375   1.111       .  S
C370        H376   1.104       .  S
C377        C378   1.405       .  A
C377        C382   1.404       .  A
C377        H384   1.076       .  S
C378        C379   1.444       .  A
C379        C386   1.517       .  S
C379        C380   1.396       .  A
C380        C381   1.397       .  A
C380        H385   1.068       .  S
C381        C382   1.437       .  A
C382        C383   1.511       .  S
C383        H387   1.111       .  S
C383        H388   1.110       .  S
C383        H389   1.104       .  S
C386        H390   1.100   1_455  S
C386        H391   1.101       .  S
C386        H392   1.111       .  S
C393        C394   1.426       .  A
C393        C398   1.407       .  A
C393        H400   1.074       .  S
C394        C395   1.445       .  A
C395        C402   1.522       .  S
C395        C396   1.383       .  A
C396        C397   1.394       .  A
C396        H401   1.087       .  S
C397        C398   1.402       .  A
C398        C399   1.505       .  S
C399        H403   1.111       .  S
C399        H404   1.110       .  S
C399        H405   1.110       .  S
C402        H406   1.110       .  S
C402        H407   1.101       .  S
C402        H408   1.111       .  S
C409        C410   1.426       .  A
C409        C414   1.419       .  A
C409        H416   1.082       .  S
C410        C411   1.428       .  A
C411        C418   1.524       .  S
C411        C412   1.386       .  A
C412        C413   1.398       .  A
C412        H417   1.086       .  S
C413        C414   1.414       .  A
C414        C415   1.502       .  S
C415        H419   1.111       .  S
C415        H420   1.110       .  S
C415        H421   1.110       .  S
C418        H422   1.110       .  S
C418        H423   1.095       .  S
C418        H424   1.112       .  S
C425        C426   1.407       .  A
C425        C430   1.417       .  A
C425        H432   1.084       .  S
C426        C427   1.417       .  A
C427        C434   1.514       .  S
C427        C428   1.390       .  A
C428        C429   1.418       .  A
C428        H433   1.085       .  S
C429        C430   1.436       .  A
C430        C431   1.509       .  S
C431        H435   1.111       .  S
C431        H436   1.108       .  S
C431        H437   1.105       .  S
C434        H438   1.110       .  S
C434        H439   1.111       .  S
C434        H440   1.111       .  S
C441        C442   1.419       .  A
C441        C446   1.409       .  A
C441        H448   1.081       .  S
C442        C443   1.421       .  A
C443        C450   1.511       .  S
C443        C444   1.409       .  A
C444        C445   1.420       .  A
C444        H449   1.081       .  S
C445        C446   1.428       .  A
C446        C447   1.510       .  S
C447        H451   1.110       .  S
C447        H452   1.108       .  S
C447        H453   1.098       .  S
C450        H454   1.100       .  S
C450        H455   1.109       .  S
C450        H456   1.108       .  S
C457        C458   1.427       .  A
C457        C462   1.415       .  A
C457        H464   1.078       .  S
C458        C459   1.435       .  A
C459        C466   1.504       .  S
C459        C460   1.403       .  A
C460        C461   1.411       .  A
C460        H465   1.078       .  S
C461        C462   1.435       .  A
C462        C463   1.516       .  S
C463        H467   1.094       .  S
C463        H468   1.111       .  S
C463        H469   1.110       .  S
C466        H470   1.104       .  S
C466        H471   1.097       .  S
C466        H472   1.111       .  S
C473        C474   1.403       .  A
C473        C478   1.411       .  A
C473        H480   1.084       .  S
C474        C475   1.420       .  A
C475        C482   1.516       .  S
C475        C476   1.386       .  A
C476        C477   1.415       .  A
C476        H481   1.081       .  S
C477        C478   1.437       .  A
C478        C479   1.512       .  S
C479        H483   1.111       .  S
C479        H484   1.108       .  S
C479        H485   1.098       .  S
C482        H486   1.110       .  S
C482        H487   1.111       .  S
C482        H488   1.111       .  S
C489        C490   1.420       .  A
C489        C494   1.426       .  A
C489        H496   1.082       .  S
C490        C491   1.443       .  A
C491        C498   1.497       .  S
C491        C492   1.418       .  A
C492        C493   1.405       .  A
C492        H497   1.083       .  S
C493        C494   1.441       .  A
C494        C495   1.511       .  S
C495        H499   1.111       .  S
C495        H500   1.109       .  S
C495        H501   1.100       .  S
C498        H502   1.101       .  S
C498        H503   1.104       .  S
C498        H504   1.111       .  S
C505        C506   1.403   1_565  A
C505        C510   1.422       .  A
C505        H512   1.085       .  S
C506        C507   1.409       .  A
C507        C514   1.513       .  S
C507        C508   1.387       .  A
C508        C509   1.406       .  A
C508        H513   1.060       .  S
C509        C510   1.452   1_545  A
C510        C511   1.514       .  S
C511        H515   1.111       .  S
C511        H516   1.109       .  S
C511        H517   1.095       .  S
C514        H518   1.098       .  S
C514        H519   1.110   1_545  S
C514        H520   1.110       .  S
C521        C522   1.404       .  A
C521        C526   1.409       .  A
C521        H528   1.077       .  S
C522        C523   1.447       .  A
C523        C530   1.517   1_455  S
C523        C524   1.408       .  A
C524        C525   1.407       .  A
C524        H529   1.073       .  S
C525        C526   1.435       .  A
C526        C527   1.504       .  S
C527        H531   1.111       .  S
C527        H532   1.105       .  S
C527        H533   1.107       .  S
C530        H534   1.105       .  S
C530        H535   1.111   1_655  S
C530        H536   1.098       .  S
C537        C538   1.395   1_655  A
C537        C542   1.410       .  A
C537        H544   1.084       .  S
C538        C539   1.399       .  A
C539        C546   1.504       .  S
C539        C540   1.384       .  A
C540        C541   1.421   1_455  A
C540        H545   1.077       .  S
C541        C542   1.440       .  A
C542        C543   1.513       .  S
C543        H547   1.111       .  S
C543        H548   1.104       .  S
C543        H549   1.107       .  S
C546        H550   1.102       .  S
C546        H551   1.111       .  S
C546        H552   1.111       .  S
C553        C554   1.420       .  A
C553        C558   1.418       .  A
C553        H560   1.074       .  S
C554        C555   1.426       .  A
C555        C562   1.517       .  S
C555        C556   1.397       .  A
C556        C557   1.415       .  A
C556        H561   1.070       .  S
C557        C558   1.440       .  A
C558        C559   1.518       .  S
C559        H563   1.111       .  S
C559        H564   1.105       .  S
C559        H565   1.106       .  S
C562        H566   1.100   1_455  S
C562        H567   1.111       .  S
C562        H568   1.109       .  S
C569        C570   1.386       .  A
C569        C574   1.395       .  A
C569        H576   1.085       .  S
C570        C571   1.397   1_655  A
C571        C578   1.507       .  S
C571        C572   1.399       .  A
C572        C573   1.415   1_455  A
C572        H577   1.066       .  S
C573        C574   1.448       .  A
C574        C575   1.516       .  S
C575        H579   1.112       .  S
C575        H580   1.102       .  S
C575        H581   1.105       .  S
C578        H582   1.110       .  S
C578        H583   1.111       .  S
C578        H584   1.111       .  S
C585        C586   1.420       .  A
C585        C590   1.429       .  A
C585        H592   1.083       .  S
C586        C587   1.433       .  A
C587        C594   1.497   1_545  S
C587        C588   1.398       .  A
C588        C589   1.405       .  A
C588        H593   1.069       .  S
C589        C590   1.440       .  A
C590        C591   1.502       .  S
C591        H595   1.111       .  S
C591        H596   1.103       .  S
C591        H597   1.104       .  S
C594        H598   1.097       .  S
C594        H599   1.083       .  S
C594        H600   1.108       .  S
C601        C602   1.389       .  A
C601        C606   1.398       .  A
C601        H608   1.087       .  S
C602        C603   1.405   1_545  A
C603        C610   1.506       .  S
C603        C604   1.418       .  A
C604        C605   1.431   1_565  A
C604        H609   1.063       .  S
C605        C606   1.445       .  A
C606        C607   1.513       .  S
C607        H611   1.112       .  S
C607        H612   1.084       .  S
C607        H613   1.102       .  S
C610        H614   1.110       .  S
C610        H615   1.108       .  S
C610        H616   1.110       .  S
C617        C618   1.420       .  A
C617        C622   1.412       .  A
C617        H624   1.082       .  S
C618        C619   1.441   1_455  A
C619        C626   1.516       .  S
C619        C620   1.408       .  A
C620        C621   1.413   1_655  A
C620        H625   1.077       .  S
C621        C622   1.427       .  A
C622        C623   1.514       .  S
C623        H627   1.111       .  S
C623        H628   1.107       .  S
C623        H629   1.106       .  S
C626        H630   1.106       .  S
C626        H631   1.103       .  S
C626        H632   1.111       .  S
C633        C634   1.408       .  A
C633        C638   1.407       .  A
C633        H640   1.078       .  S
C634        C635   1.443       .  A
C635        C642   1.511       .  S
C635        C636   1.406       .  A
C636        C637   1.399       .  A
C636        H641   1.079       .  S
C637        C638   1.447       .  A
C638        C639   1.516       .  S
C639        H643   1.111       .  S
C639        H644   1.110       .  S
C639        H645   1.099       .  S
C642        H646   1.095   1_455  S
C642        H647   1.110       .  S
C642        H648   1.111       .  S
C649        C650   1.401   1_655  A
C649        C654   1.411       .  A
C649        H656   1.084       .  S
C650        C651   1.398       .  A
C651        C658   1.508       .  S
C651        C652   1.387       .  A
C652        C653   1.423       .  A
C652        H657   1.080       .  S
C653        C654   1.431   1_455  A
C654        C655   1.505       .  S
C655        H659   1.107       .  S
C655        H660   1.110       .  S
C655        H661   1.095       .  S
C658        H662   1.109       .  S
C658        H663   1.106       .  S
C658        H664   1.111       .  S
C665        C666   1.420       .  A
C665        C670   1.393       .  A
C665        H672   1.060       .  S
C666        C667   1.460   1_556  A
C667        C674   1.520       .  S
C667        C668   1.417       .  A
C668        C669   1.392   1_554  A
C668        H673   1.083       .  S
C669        C670   1.407       .  A
C670        C671   1.510       .  S
C671        H675   1.110       .  S
C671        H676   1.111       .  S
C671        H677   1.098       .  S
C674        H678   1.111       .  S
C674        H679   1.094       .  S
C674        H680   1.111       .  S
C681        C682   1.420       .  A
C681        C686   1.401       .  A
C681        H688   1.078       .  S
C682        C683   1.438   1_655  A
C683        C690   1.517       .  S
C683        C684   1.415       .  A
C684        C685   1.412   1_455  A
C684        H689   1.072       .  S
C685        C686   1.432       .  A
C686        C687   1.518       .  S
C687        H691   1.112       .  S
C687        H692   1.110       .  S
C687        H693   1.097       .  S
C690        H694   1.101       .  S
C690        H695   1.108       .  S
C690        H696   1.111       .  S
C697        C698   1.417       .  A
C697        C702   1.412       .  A
C697        H704   1.079       .  S
C698        C699   1.426       .  A
C699        C706   1.513       .  S
C699        C700   1.412       .  A
C700        C701   1.423       .  A
C700        H705   1.079       .  S
C701        C702   1.435       .  A
C702        C703   1.513       .  S
C703        H707   1.111       .  S
C703        H708   1.105       .  S
C703        H709   1.105       .  S
C706        H710   1.107       .  S
C706        H711   1.102       .  S
C706        H712   1.110       .  S
C713        C714   1.384       .  A
C713        C718   1.391       .  A
C713        H720   1.076       .  S
C714        C715   1.402   1_455  A
C715        C722   1.505       .  S
C715        C716   1.407       .  A
C716        C717   1.417   1_655  A
C716        H721   1.077       .  S
C717        C718   1.435       .  A
C718        C719   1.511       .  S
C719        H723   1.111       .  S
C719        H724   1.107       .  S
C719        H725   1.098       .  S
C722        H726   1.111       .  S
C722        H727   1.110       .  S
C722        H728   1.111       .  S
C729        C730   1.414       .  A
C729        C734   1.387       .  A
C729        H736   1.081       .  S
C730        C731   1.448   1_556  A
C731        C738   1.511       .  S
C731        C732   1.419       .  A
C732        C733   1.399       .  A
C732        H737   1.084       .  S
C733        C734   1.419   1_554  A
C734        C735   1.517       .  S
C735        H739   1.111       .  S
C735        H740   1.111       .  S
C735        H741   1.110   1_556  S
C738        H742   1.106   1_554  S
C738        H743   1.102       .  S
C738        H744   1.111       .  S
C745        C746   1.402       .  A
C745        C750   1.379       .  A
C745        H752   1.072   1_554  S
C746        C747   1.444       .  A
C747        C754   1.507       .  S
C747        C748   1.427       .  A
C748        C749   1.418       .  A
C748        H753   1.083       .  S
C749        C750   1.415       .  A
C750        C751   1.486       .  S
C751        H755   1.114       .  S
C751        H756   1.082       .  S
C751        H757   1.104       .  S
C754        H758   1.105       .  S
C754        H759   1.100       .  S
C754        H760   1.111       .  S
C761        C762   1.421       .  A
C761        C766   1.400       .  A
C761        H768   1.071       .  S
C762        C763   1.443       .  A
C763        C770   1.510       .  S
C763        C764   1.412       .  A
C764        C765   1.396       .  A
C764        H769   1.085       .  S
C765        C766   1.405       .  A
C766        C767   1.507       .  S
C767        H771   1.104       .  S
C767        H772   1.109       .  S
C767        H773   1.106       .  S
C770        H774   1.100       .  S
C770        H775   1.111       .  S
C770        H776   1.111       .  S
C777        C778   1.419       .  A
C777        C782   1.374       .  A
C777        H784   1.078       .  S
C778        C779   1.434       .  A
C779        C786   1.511       .  S
C779        C780   1.417       .  A
C780        C781   1.403       .  A
C780        H785   1.083       .  S
C781        C782   1.394       .  A
C782        C783   1.500       .  S
C783        H787   1.111       .  S
C783        H788   1.110       .  S
C783        H789   1.107       .  S
C786        H790   1.106       .  S
C786        H791   1.106       .  S
C786        H792   1.110       .  S
C793        C794   1.424       .  A
C793        C798   1.393       .  A
C793        H800   1.072       .  S
C794        C795   1.441       .  A
C795        C802   1.510       .  S
C795        C796   1.431       .  A
C796        C797   1.425       .  A
C796        H801   1.084       .  S
C797        C798   1.429       .  A
C798        C799   1.519       .  S
C799        H803   1.112       .  S
C799        H804   1.106       .  S
C799        H805   1.105       .  S
C802        H806   1.105       .  S
C802        H807   1.111       .  S
C802        H808   1.110       .  S
C809        C810   1.421       .  A
C809        C814   1.390       .  A
C809        H816   1.081       .  S
C810        C811   1.440       .  A
C811        C818   1.502       .  S
C811        C812   1.401       .  A
C812        C813   1.387       .  A
C812        H817   1.082       .  S
C813        C814   1.397       .  A
C814        C815   1.505       .  S
C815        H819   1.110       .  S
C815        H820   1.110       .  S
C815        H821   1.102       .  S
C818        H822   1.101       .  S
C818        H823   1.104       .  S
C818        H824   1.111       .  S
C825        C826   1.418       .  A
C825        C830   1.420       .  A
C825        H832   1.077       .  S
C826        C827   1.433       .  A
C827        C834   1.509       .  S
C827        C828   1.416       .  A
C828        C829   1.415       .  A
C828        H833   1.071       .  S
C829        C830   1.439       .  A
C830        C831   1.510       .  S
C831        H835   1.111       .  S
C831        H836   1.111       .  S
C831        H837   1.090       .  S
C834        H838   1.104       .  S
C834        H839   1.103       .  S
C834        H840   1.112       .  S
C841        C842   1.414       .  A
C841        C846   1.430       .  A
C841        H848   1.081       .  S
C842        C843   1.440       .  A
C843        C850   1.517       .  S
C843        C844   1.412       .  A
C844        C845   1.412       .  A
C844        H849   1.084       .  S
C845        C846   1.446       .  A
C846        C847   1.506       .  S
C847        H851   1.109       .  S
C847        H852   1.105       .  S
C847        H853   1.105       .  S
C850        H854   1.106       .  S
C850        H855   1.105   1_554  S
C850        H856   1.111       .  S
C857        C858   1.425       .  A
C857        C862   1.432       .  A
C857        H864   1.068       .  S
C858        C859   1.418       .  A
C859        C866   1.507       .  S
C859        C860   1.386       .  A
C860        C861   1.393       .  A
C860        H865   1.072       .  S
C861        C862   1.420       .  A
C862        C863   1.503       .  S
C863        H867   1.111       .  S
C863        H868   1.110       .  S
C863        H869   1.104       .  S
C866        H870   1.109       .  S
C866        H871   1.107       .  S
C866        H872   1.113       .  S
C873        C874   1.412   1_565  A
C873        C878   1.425       .  A
C873        H880   1.075       .  S
C874        C875   1.445       .  A
C875        C882   1.510   1_545  S
C875        C876   1.411       .  A
C876        C877   1.410       .  A
C876        H881   1.080       .  S
C877        C878   1.449   1_545  A
C878        C879   1.515       .  S
C879        H883   1.111       .  S
C879        H884   1.099       .  S
C879        H885   1.105   1_565  S
C882        H886   1.078       .  S
C882        H887   1.112   1_565  S
C882        H888   1.112       .  S
C889        C890   1.397       .  A
C889        C894   1.420       .  A
C889        H896   1.061       .  S
C890        C891   1.437       .  A
C891        C898   1.506       .  S
C891        C892   1.415       .  A
C892        C893   1.410       .  A
C892        H897   1.075       .  S
C893        C894   1.467       .  A
C894        C895   1.530       .  S
C895        H899   1.108       .  S
C895        H900   1.095       .  S
C895        H901   1.110       .  S
C898        H902   1.108       .  S
C898        H903   1.107       .  S
C898        H904   1.112       .  S
C905        C906   1.396       .  A
C905        C910   1.401       .  A
C905        H912   1.084   1_545  S
C906        C907   1.412       .  A
C907        C914   1.505       .  S
C907        C908   1.420       .  A
C908        C909   1.429       .  A
C908        H913   1.077       .  S
C909        C910   1.444       .  A
C910        C911   1.509       .  S
C911        H915   1.110       .  S
C911        H916   1.097       .  S
C911        H917   1.098   1_545  S
C914        H918   1.110       .  S
C914        H919   1.110   1_545  S
C914        H920   1.111       .  S
C921        C922   1.423       .  A
C921        C926   1.407       .  A
C921        H928   1.074       .  S
C922        C923   1.452   1_554  A
C923        C930   1.507       .  S
C923        C924   1.419       .  A
C924        C925   1.407   1_556  A
C924        H929   1.084       .  S
C925        C926   1.428       .  A
C926        C927   1.513       .  S
C927        H931   1.110       .  S
C927        H932   1.109       .  S
C927        H933   1.090       .  S
C930        H934   1.103       .  S
C930        H935   1.107       .  S
C930        H936   1.111       .  S
C937        C938   1.418       .  A
C937        C942   1.419       .  A
C937        H944   1.084       .  S
C938        C939   1.422       .  A
C939        C946   1.500       .  S
C939        C940   1.405       .  A
C940        C941   1.416       .  A
C940        H945   1.072       .  S
C941        C942   1.449       .  A
C942        C943   1.518       .  S
C943        H947   1.109       .  S
C943        H948   1.092       .  S
C943        H949   1.111       .  S
C946        H950   1.080       .  S
C946        H951   1.110       .  S
C946        H952   1.102       .  S
C953        C954   1.410   1_556  A
C953        C958   1.409       .  A
C953        H960   1.064       .  S
C954        C955   1.449       .  A
C955        C962   1.526       .  S
C955        C956   1.396       .  A
C956        C957   1.393       .  A
C956        H961   1.087       .  S
C957        C958   1.405   1_554  A
C958        C959   1.502       .  S
C959        H963   1.111       .  S
C959        H964   1.109       .  S
C959        H965   1.110       .  S
C962        H966   1.111       .  S
C962        H967   1.104       .  S
C962        H968   1.108       .  S
C969        C970   1.415   1_565  A
C969        C974   1.420       .  A
C969        H976   1.069       .  S
C970        C971   1.440       .  A
C971        C978   1.522       .  S
C971        C972   1.419       .  A
C972        C973   1.419       .  A
C972        H977   1.065       .  S
C973        C974   1.440   1_545  A
C974        C975   1.513       .  S
C975        H979   1.111       .  S
C975        H980   1.089       .  S
C975        H981   1.111       .  S
C978        H982   1.112       .  S
C978        H983   1.100       .  S
C978        H984   1.110       .  S
C985        C986   1.426       .  A
C985        C990   1.418       .  A
C985        H992   1.070       .  S
C986        C987   1.426       .  A
C987        C994   1.517       .  S
C987        C988   1.399       .  A
C988        C989   1.413       .  A
C988        H993   1.052       .  S
C989        C990   1.426       .  A
C990        C991   1.510       .  S
C991        H995   1.111       .  S
C991        H996   1.111       .  S
C991        H997   1.107       .  S
C994        H998   1.098       .  S
C994        H999   1.111       .  S
C994       H1000   1.100       .  S
C1001      C1002   1.387   1_565  A
C1001      C1006   1.393       .  A
C1001      H1008   1.088       .  S
C1002      C1003   1.412       .  A
C1003      C1010   1.502       .  S
C1003      C1004   1.423       .  A
C1004      C1005   1.424       .  A
C1004      H1009   1.082       .  S
C1005      C1006   1.459   1_545  A
C1006      C1007   1.523       .  S
C1007      H1011   1.107       .  S
C1007      H1012   1.097       .  S
C1007      H1013   1.112       .  S
C1010      H1014   1.110       .  S
C1010      H1015   1.104       .  S
C1010      H1016   1.111       .  S
C1017      C1018   1.404       .  A
C1017      C1022   1.390       .  A
C1017      H1024   1.074       .  S
C1018      C1019   1.447       .  A
C1019      C1026   1.519       .  S
C1019      C1020   1.423       .  A
C1020      C1021   1.423       .  A
C1020      H1025   1.071       .  S
C1021      C1022   1.429       .  A
C1022      C1023   1.509       .  S
C1023      H1027   1.107       .  S
C1023      H1028   1.110       .  S
C1023      H1029   1.095       .  S
C1026      H1030   1.110       .  S
C1026      H1031   1.099       .  S
C1026      H1032   1.112       .  S
C1033      C1034   1.420       .  A
C1033      C1038   1.389       .  A
C1033      H1040   1.062       .  S
C1034      C1035   1.454       .  A
C1035      C1042   1.512       .  S
C1035      C1036   1.425       .  A
C1036      C1037   1.401       .  A
C1036      H1041   1.084       .  S
C1037      C1038   1.411       .  A
C1038      C1039   1.519       .  S
C1039      H1043   1.111       .  S
C1039      H1044   1.110       .  S
C1039      H1045   1.110   1_556  S
C1042      H1046   1.103       .  S
C1042      H1047   1.104   1_556  S
C1042      H1048   1.111       .  S
C1049      C1050   1.423       .  A
C1049      C1054   1.408       .  A
C1049      H1056   1.075       .  S
C1050      C1051   1.438   1_655  A
C1051      C1058   1.508       .  S
C1051      C1052   1.416       .  A
C1052      C1053   1.416   1_455  A
C1052      H1057   1.083       .  S
C1053      C1054   1.440       .  A
C1054      C1055   1.525       .  S
C1055      H1059   1.111       .  S
C1055      H1060   1.108       .  S
C1055      H1061   1.102       .  S
C1058      H1062   1.111       .  S
C1058      H1063   1.089       .  S
C1058      H1064   1.110       .  S
C1065      C1066   1.411       .  A
C1065      C1070   1.420       .  A
C1065      H1072   1.078       .  S
C1066      C1067   1.441       .  A
C1067      C1074   1.511       .  S
C1067      C1068   1.411       .  A
C1068      C1069   1.410       .  A
C1068      H1073   1.063       .  S
C1069      C1070   1.449       .  A
C1070      C1071   1.510       .  S
C1071      H1075   1.112       .  S
C1071      H1076   1.102       .  S
C1071      H1077   1.110       .  S
C1074      H1078   1.111       .  S
C1074      H1079   1.085   1_455  S
C1074      H1080   1.109   1_455  S
C1081      C1082   1.396   1_655  A
C1081      C1086   1.416       .  A
C1081      H1088   1.084       .  S
C1082      C1083   1.403       .  A
C1083      C1090   1.500       .  S
C1083      C1084   1.389       .  A
C1084      C1085   1.419   1_455  A
C1084      H1089   1.079       .  S
C1085      C1086   1.444       .  A
C1086      C1087   1.503       .  S
C1087      H1091   1.110       .  S
C1087      H1092   1.085       .  S
C1087      H1093   1.109       .  S
C1090      H1094   1.109       .  S
C1090      H1095   1.108       .  S
C1090      H1096   1.111       .  S
C1097      C1098   1.415       .  A
C1097      C1102   1.408       .  A
C1097      H1104   1.077   1_554  S
C1098      C1099   1.442       .  A
C1099      C1106   1.516       .  S
C1099      C1100   1.414       .  A
C1100      C1101   1.418       .  A
C1100      H1105   1.078       .  S
C1101      C1102   1.426       .  A
C1102      C1103   1.512       .  S
C1103      H1107   1.094       .  S
C1103      H1108   1.097       .  S
C1103      H1109   1.110       .  S
C1106      H1110   1.104       .  S
C1106      H1111   1.110       .  S
C1106      H1112   1.108       .  S
C1113      C1114   1.419       .  A
C1113      C1118   1.407       .  A
C1113      H1120   1.076       .  S
C1114      C1115   1.435   1_556  A
C1115      C1122   1.520       .  S
C1115      C1116   1.395       .  A
C1116      C1117   1.390   1_554  A
C1116      H1121   1.072       .  S
C1117      C1118   1.406       .  A
C1118      C1119   1.507       .  S
C1119      H1123   1.111       .  S
C1119      H1124   1.110       .  S
C1119      H1125   1.109       .  S
C1122      H1126   1.095       .  S
C1122      H1127   1.108       .  S
C1122      H1128   1.112       .  S
C1129      C1130   1.408   1_554  A
C1129      C1134   1.412       .  A
C1129      H1136   1.084       .  S
C1130      C1131   1.435       .  A
C1131      C1138   1.509       .  S
C1131      C1132   1.406       .  A
C1132      C1133   1.410       .  A
C1132      H1137   1.079       .  S
C1133      C1134   1.435   1_556  A
C1134      C1135   1.508       .  S
C1135      H1139   1.104       .  S
C1135      H1140   1.111       .  S
C1135      H1141   1.102       .  S
C1138      H1142   1.107       .  S
C1138      H1143   1.100       .  S
C1138      H1144   1.111       .  S
C1145      C1146   1.401       .  A
C1145      C1150   1.404       .  A
C1145      H1152   1.065       .  S
C1146      C1147   1.453       .  A
C1147      C1154   1.513       .  S
C1147      C1148   1.421       .  A
C1148      C1149   1.409       .  A
C1148      H1153   1.079       .  S
C1149      C1150   1.436       .  A
C1150      C1151   1.511       .  S
C1151      H1155   1.105       .  S
C1151      H1156   1.104       .  S
C1151      H1157   1.108       .  S
C1154      H1158   1.090       .  S
C1154      H1159   1.110       .  S
C1154      H1160   1.111       .  S
C1161      C1162   1.430       .  A
C1161      C1166   1.419       .  A
C1161      H1168   1.079       .  S
C1162      C1163   1.435       .  A
C1163      C1170   1.501       .  S
C1163      C1164   1.383       .  A
C1164      C1165   1.394       .  A
C1164      H1169   1.086       .  S
C1165      C1166   1.410       .  A
C1166      C1167   1.504       .  S
C1167      H1171   1.111       .  S
C1167      H1172   1.110       .  S
C1167      H1173   1.110   1_556  S
C1170      H1174   1.076       .  S
C1170      H1175   1.111   1_556  S
C1170      H1176   1.111       .  S
C1177      C1178   1.413   1_455  A
C1177      C1182   1.404       .  A
C1177      H1184   1.075       .  S
C1178      C1179   1.441       .  A
C1179      C1186   1.513       .  S
C1179      C1180   1.424       .  A
C1180      C1181   1.417       .  A
C1180      H1185   1.076       .  S
C1181      C1182   1.447   1_655  A
C1182      C1183   1.532       .  S
C1183      H1187   1.111       .  S
C1183      H1188   1.099       .  S
C1183      H1189   1.093       .  S
C1186      H1190   1.110       .  S
C1186      H1191   1.105       .  S
C1186      H1192   1.107       .  S
C1193      C1194   1.411       .  A
C1193      C1198   1.430       .  A
C1193      H1200   1.084       .  S
C1194      C1195   1.401       .  A
C1195      C1202   1.498       .  S
C1195      C1196   1.394       .  A
C1196      C1197   1.415       .  A
C1196      H1201   1.064       .  S
C1197      C1198   1.458       .  A
C1198      C1199   1.507       .  S
C1199      H1203   1.111       .  S
C1199      H1204   1.105       .  S
C1199      H1205   1.107       .  S
C1202      H1206   1.101   1_455  S
C1202      H1207   1.099   1_455  S
C1202      H1208   1.108       .  S
C1209      C1210   1.428       .  A
C1209      C1214   1.413       .  A
C1209      H1216   1.073       .  S
C1210      C1211   1.462       .  A
C1211      C1218   1.528       .  S
C1211      C1212   1.390       .  A
C1212      C1213   1.388       .  A
C1212      H1217   1.087       .  S
C1213      C1214   1.403       .  A
C1214      C1215   1.505   1_455  S
C1215      H1219   1.111       .  S
C1215      H1220   1.110   1_655  S
C1215      H1221   1.110       .  S
C1218      H1222   1.109       .  S
C1218      H1223   1.091       .  S
C1218      H1224   1.113       .  S
C1225      C1226   1.398   1_565  A
C1225      C1230   1.405       .  A
C1225      H1232   1.078       .  S
C1226      C1227   1.442       .  A
C1227      C1234   1.508       .  S
C1227      C1228   1.416       .  A
C1228      C1229   1.412       .  A
C1228      H1233   1.082       .  S
C1229      C1230   1.440   1_545  A
C1230      C1231   1.505       .  S
C1231      H1235   1.095       .  S
C1231      H1236   1.101   1_565  S
C1231      H1237   1.111       .  S
C1234      H1238   1.111       .  S
C1234      H1239   1.090       .  S
C1234      H1240   1.110       .  S
C1241      C1242   1.409       .  A
C1241      C1246   1.409       .  A
C1241      H1248   1.076       .  S
C1242      C1243   1.427       .  A
C1243      C1250   1.506       .  S
C1243      C1244   1.414       .  A
C1244      C1245   1.412       .  A
C1244      H1249   1.059       .  S
C1245      C1246   1.439       .  A
C1246      C1247   1.498       .  S
C1247      H1251   1.088       .  S
C1247      H1252   1.112       .  S
C1247      H1253   1.104       .  S
C1250      H1254   1.105   1_545  S
C1250      H1255   1.104       .  S
C1250      H1256   1.111       .  S
C1257      C1258   1.399   1_565  A
C1257      C1262   1.410       .  A
C1257      H1264   1.085       .  S
C1258      C1259   1.404       .  A
C1259      C1266   1.517       .  S
C1259      C1260   1.380       .  A
C1260      C1261   1.416       .  A
C1260      H1265   1.074       .  S
C1261      C1262   1.445   1_545  A
C1262      C1263   1.516       .  S
C1263      H1267   1.111       .  S
C1263      H1268   1.110   1_565  S
C1263      H1269   1.093       .  S
C1266      H1270   1.111       .  S
C1266      H1271   1.109       .  S
C1266      H1272   1.111       .  S
C1273      C1274   1.418       .  A
C1273      C1278   1.423       .  A
C1273      H1280   1.079       .  S
C1274      C1275   1.429   1_556  A
C1275      C1282   1.510       .  S
C1275      C1276   1.414       .  A
C1276      C1277   1.414   1_554  A
C1276      H1281   1.053       .  S
C1277      C1278   1.443       .  A
C1278      C1279   1.512       .  S
C1279      H1283   1.111       .  S
C1279      H1284   1.104       .  S
C1279      H1285   1.097       .  S
C1282      H1286   1.092       .  S
C1282      H1287   1.111       .  S
C1282      H1288   1.111       .  S
C1289      C1290   1.411       .  A
C1289      C1294   1.410       .  A
C1289      H1296   1.079       .  S
C1290      C1291   1.421       .  A
C1291      C1298   1.511       .  S
C1291      C1292   1.409       .  A
C1292      C1293   1.431       .  A
C1292      H1297   1.068       .  S
C1293      C1294   1.435       .  A
C1294      C1295   1.489       .  S
C1295      H1299   1.102       .  S
C1295      H1300   1.112       .  S
C1295      H1301   1.101       .  S
C1298      H1302   1.103   1_554  S
C1298      H1303   1.110       .  S
C1298      H1304   1.108       .  S
C1305      C1306   1.425   1_556  A
C1305      C1310   1.421       .  A
C1305      H1312   1.080       .  S
C1306      C1307   1.436       .  A
C1307      C1314   1.515       .  S
C1307      C1308   1.390       .  A
C1308      C1309   1.399       .  A
C1308      H1313   1.085       .  S
C1309      C1310   1.413   1_554  A
C1310      C1311   1.503       .  S
C1311      H1315   1.111       .  S
C1311      H1316   1.110   1_556  S
C1311      H1317   1.110       .  S
C1314      H1318   1.111       .  S
C1314      H1319   1.096       .  S
C1314      H1320   1.107   1_554  S
C1321      C1322   1.411   1_556  A
C1321      C1326   1.422       .  A
C1321      H1328   1.084       .  S
C1322      C1323   1.431       .  A
C1323      C1330   1.515       .  S
C1323      C1324   1.406       .  A
C1324      C1325   1.424   1_554  A
C1324      H1329   1.073       .  S
C1325      C1326   1.446       .  A
C1326      C1327   1.505       .  S
C1327      H1331   1.111       .  S
C1327      H1332   1.105       .  S
C1327      H1333   1.104       .  S
C1330      H1334   1.104       .  S
C1330      H1335   1.111       .  S
C1330      H1336   1.105       .  S
C1337      C1338   1.435       .  A
C1337      C1342   1.418       .  A
C1337      H1344   1.083       .  S
C1338      C1339   1.433       .  A
C1339      C1346   1.500   1_554  S
C1339      C1340   1.393       .  A
C1340      C1341   1.413       .  A
C1340      H1345   1.084       .  S
C1341      C1342   1.427       .  A
C1342      C1343   1.513       .  S
C1343      H1347   1.111       .  S
C1343      H1348   1.105       .  S
C1343      H1349   1.100       .  S
C1346      H1350   1.107   1_556  S
C1346      H1351   1.103       .  S
C1346      H1352   1.097       .  S
C1353      C1354   1.419       .  A
C1353      C1358   1.384       .  A
C1353      H1360   1.080       .  S
C1354      C1355   1.439       .  A
C1355      C1362   1.508       .  S
C1355      C1356   1.422       .  A
C1356      C1357   1.405       .  A
C1356      H1361   1.084       .  S
C1357      C1358   1.419       .  A
C1358      C1359   1.518       .  S
C1359      H1363   1.108       .  S
C1359      H1364   1.111       .  S
C1359      H1365   1.110   1_554  S
C1362      H1366   1.106       .  S
C1362      H1367   1.109       .  S
C1362      H1368   1.111       .  S
C1369      C1370   1.406   1_565  A
C1369      C1374   1.406       .  A
C1369      H1376   1.079       .  S
C1370      C1371   1.441       .  A
C1371      C1378   1.515       .  S
C1371      C1372   1.411       .  A
C1372      C1373   1.413       .  A
C1372      H1377   1.085       .  S
C1373      C1374   1.441   1_545  A
C1374      C1375   1.506       .  S
C1375      H1379   1.111       .  S
C1375      H1380   1.112       .  S
C1375      H1381   1.071       .  S
C1378      H1382   1.088       .  S
C1378      H1383   1.109       .  S
C1378      H1384   1.110       .  S
C1385      C1386   1.401       .  A
C1385      C1390   1.401       .  A
C1385      H1392   1.083       .  S
C1386      C1387   1.434       .  A
C1387      C1394   1.505       .  S
C1387      C1388   1.410       .  A
C1388      C1389   1.403       .  A
C1388      H1393   1.077       .  S
C1389      C1390   1.441       .  A
C1390      C1391   1.503       .  S
C1391      H1395   1.111       .  S
C1391      H1396   1.101       .  S
C1391      H1397   1.099       .  S
C1394      H1398   1.098       .  S
C1394      H1399   1.107       .  S
C1394      H1400   1.111       .  S
C1401      C1402   1.413       .  A
C1401      C1406   1.377       .  A
C1401      H1408   1.064       .  S
C1402      C1403   1.442   1_545  A
C1403      C1410   1.509       .  S
C1403      C1404   1.407       .  A
C1404      C1405   1.392   1_565  A
C1404      H1409   1.085       .  S
C1405      C1406   1.396       .  A
C1406      C1407   1.516       .  S
C1407      H1411   1.111       .  S
C1407      H1412   1.108       .  S
C1407      H1413   1.110       .  S
C1410      H1414   1.093       .  S
C1410      H1415   1.111       .  S
C1410      H1416   1.110       .  S
C1417      C1418   1.417       .  A
C1417      C1422   1.405       .  A
C1417      H1424   1.082       .  S
C1418      C1419   1.432       .  A
C1419      C1426   1.497       .  S
C1419      C1420   1.407       .  A
C1420      C1421   1.411       .  A
C1420      H1425   1.081       .  S
C1421      C1422   1.425       .  A
C1422      C1423   1.505       .  S
C1423      H1427   1.099   1_556  S
C1423      H1428   1.107       .  S
C1423      H1429   1.111       .  S
C1426      H1430   1.095       .  S
C1426      H1431   1.104       .  S
C1426      H1432   1.111       .  S
C1433      C1434   1.427       .  A
C1433      C1438   1.420       .  A
C1433      H1440   1.074       .  S
C1434      C1435   1.423       .  A
C1435      C1442   1.505       .  S
C1435      C1436   1.395       .  A
C1436      C1437   1.413       .  A
C1436      H1441   1.073       .  S
C1437      C1438   1.440       .  A
C1438      C1439   1.517       .  S
C1439      H1443   1.111       .  S
C1439      H1444   1.105       .  S
C1439      H1445   1.102       .  S
C1442      H1446   1.109       .  S
C1442      H1447   1.081       .  S
C1442      H1448   1.111       .  S
C1449      C1450   1.422       .  A
C1449      C1454   1.416       .  A
C1449      H1456   1.082       .  S
C1450      C1451   1.435       .  A
C1451      C1458   1.510       .  S
C1451      C1452   1.386       .  A
C1452      C1453   1.378       .  A
C1452      H1457   1.067       .  S
C1453      C1454   1.407       .  A
C1454      C1455   1.504       .  S
C1455      H1459   1.111       .  S
C1455      H1460   1.111       .  S
C1455      H1461   1.110       .  S
C1458      H1462   1.107       .  S
C1458      H1463   1.093       .  S
C1458      H1464   1.111       .  S
C1465      C1466   1.427       .  A
C1465      C1470   1.415       .  A
C1465      H1472   1.078       .  S
C1466      C1467   1.449       .  A
C1467      C1474   1.514       .  S
C1467      C1468   1.425       .  A
C1468      C1469   1.417       .  A
C1468      H1473   1.082       .  S
C1469      C1470   1.429       .  A
C1470      C1471   1.508       .  S
C1471      H1475   1.110       .  S
C1471      H1476   1.102   1_556  S
C1471      H1477   1.100       .  S
C1474      H1478   1.110       .  S
C1474      H1479   1.099       .  S
C1474      H1480   1.112       .  S
C1481      C1482   1.424       .  A
C1481      C1486   1.416       .  A
C1481      H1488   1.067       .  S
C1482      C1483   1.453       .  A
C1483      C1490   1.512       .  S
C1483      C1484   1.426       .  A
C1484      C1485   1.420       .  A
C1484      H1489   1.082       .  S
C1485      C1486   1.425       .  A
C1486      C1487   1.511       .  S
C1487      H1491   1.111       .  S
C1487      H1492   1.100       .  S
C1487      H1493   1.105       .  S
C1490      H1494   1.103       .  S
C1490      H1495   1.104       .  S
C1490      H1496   1.112       .  S
C1497      C1498   1.412       .  A
C1497      C1502   1.387       .  A
C1497      H1504   1.079       .  S
C1498      C1499   1.438       .  A
C1499      C1506   1.505       .  S
C1499      C1500   1.402       .  A
C1500      C1501   1.392       .  A
C1500      H1505   1.085       .  S
C1501      C1502   1.403       .  A
C1502      C1503   1.496       .  S
C1503      H1507   1.111       .  S
C1503      H1508   1.110       .  S
C1503      H1509   1.109       .  S
C1506      H1510   1.095       .  S
C1506      H1511   1.111       .  S
C1506      H1512   1.110       .  S
C1513      C1514   1.409       .  A
C1513      C1518   1.402       .  A
C1513      H1520   1.077       .  S
C1514      C1515   1.442       .  A
C1515      C1522   1.505       .  S
C1515      C1516   1.418       .  A
C1516      C1517   1.401       .  A
C1516      H1521   1.083       .  S
C1517      C1518   1.424       .  A
C1518      C1519   1.507       .  S
C1519      H1523   1.110       .  S
C1519      H1524   1.108       .  S
C1519      H1525   1.097       .  S
C1522      H1526   1.110       .  S
C1522      H1527   1.099       .  S
C1522      H1528   1.105       .  S
C1529      C1530   1.408       .  A
C1529      C1534   1.411       .  A
C1529      H1536   1.080       .  S
C1530      C1531   1.441       .  A
C1531      C1538   1.507       .  S
C1531      C1532   1.418       .  A
C1532      C1533   1.409       .  A
C1532      H1537   1.084       .  S
C1533      C1534   1.447       .  A
C1534      C1535   1.515       .  S
C1535      H1539   1.111       .  S
C1535      H1540   1.093       .  S
C1535      H1541   1.111       .  S
C1538      H1542   1.103       .  S
C1538      H1543   1.105       .  S
C1538      H1544   1.111       .  S
C1545      C1546   1.419       .  A
C1545      C1550   1.395       .  A
C1545      H1552   1.070       .  S
C1546      C1547   1.454       .  A
C1547      C1554   1.499       .  S
C1547      C1548   1.429       .  A
C1548      C1549   1.416       .  A
C1548      H1553   1.085       .  S
C1549      C1550   1.405       .  A
C1550      C1551   1.498       .  S
C1551      H1555   1.091       .  S
C1551      H1556   1.107       .  S
C1551      H1557   1.094   1_556  S
C1554      H1558   1.086       .  S
C1554      H1559   1.110       .  S
C1554      H1560   1.111       .  S
C1561      C1562   1.399       .  A
C1561      C1566   1.409       .  A
C1561      H1568   1.085       .  S
C1562      C1563   1.412       .  A
C1563      C1570   1.519       .  S
C1563      C1564   1.376       .  A
C1564      C1565   1.412       .  A
C1564      H1569   1.074       .  S
C1565      C1566   1.444       .  A
C1566      C1567   1.516       .  S
C1567      H1571   1.111       .  S
C1567      H1572   1.110       .  S
C1567      H1573   1.092       .  S
C1570      H1574   1.111       .  S
C1570      H1575   1.110       .  S
C1570      H1576   1.111       .  S
C1577      C1578   1.416       .  A
C1577      C1582   1.421       .  A
C1577      H1584   1.083       .  S
C1578      C1579   1.441       .  A
C1579      C1586   1.527       .  S
C1579      C1580   1.401       .  A
C1580      C1581   1.418       .  A
C1580      H1585   1.073       .  S
C1581      C1582   1.435       .  A
C1582      C1583   1.510       .  S
C1583      H1587   1.111       .  S
C1583      H1588   1.098       .  S
C1583      H1589   1.106       .  S
C1586      H1590   1.104       .  S
C1586      H1591   1.095       .  S
C1586      H1592   1.111       .  S
C1593      C1594   1.412       .  A
C1593      C1598   1.417       .  A
C1593      H1600   1.073       .  S
C1594      C1595   1.421       .  A
C1595      C1602   1.513       .  S
C1595      C1596   1.396       .  A
C1596      C1597   1.417       .  A
C1596      H1601   1.064       .  S
C1597      C1598   1.451       .  A
C1598      C1599   1.514       .  S
C1599      H1603   1.112       .  S
C1599      H1604   1.111       .  S
C1599      H1605   1.079       .  S
C1602      H1606   1.111       .  S
C1602      H1607   1.101       .  S
C1602      H1608   1.101       .  S
C1609      C1610   1.417       .  A
C1609      C1614   1.426       .  A
C1609      H1616   1.075       .  S
C1610      C1611   1.427       .  A
C1611      C1618   1.507       .  S
C1611      C1612   1.383       .  A
C1612      C1613   1.402       .  A
C1612      H1617   1.062       .  S
C1613      C1614   1.441       .  A
C1614      C1615   1.506       .  S
C1615      H1619   1.111       .  S
C1615      H1620   1.109       .  S
C1615      H1621   1.107       .  S
C1618      H1622   1.098       .  S
C1618      H1623   1.102       .  S
C1618      H1624   1.111       .  S
C1625      C1626   1.396       .  A
C1625      C1630   1.411       .  A
C1625      H1632   1.084       .  S
C1626      C1627   1.402       .  A
C1627      C1634   1.510       .  S
C1627      C1628   1.395       .  A
C1628      C1629   1.424       .  A
C1628      H1633   1.080       .  S
C1629      C1630   1.434       .  A
C1630      C1631   1.504       .  S
C1631      H1635   1.111       .  S
C1631      H1636   1.108       .  S
C1631      H1637   1.097       .  S
C1634      H1638   1.110       .  S
C1634      H1639   1.110       .  S
C1634      H1640   1.111       .  S
C1641      C1642   1.423       .  A
C1641      C1646   1.421       .  A
C1641      H1648   1.081       .  S
C1642      C1643   1.430       .  A
C1643      C1650   1.497       .  S
C1643      C1644   1.403       .  A
C1644      C1645   1.411       .  A
C1644      H1649   1.079   1_565  S
C1645      C1646   1.429       .  A
C1646      C1647   1.506       .  S
C1647      H1651   1.111       .  S
C1647      H1652   1.096       .  S
C1647      H1653   1.108       .  S
C1650      H1654   1.106       .  S
C1650      H1655   1.099       .  S
C1650      H1656   1.113       .  S
C1657      C1658   1.426       .  A
C1657      C1662   1.424       .  A
C1657      H1664   1.072       .  S
C1658      C1659   1.443       .  A
C1659      C1666   1.522       .  S
C1659      C1660   1.410       .  A
C1660      C1661   1.414       .  A
C1660      H1665   1.073       .  S
C1661      C1662   1.436       .  A
C1662      C1663   1.510       .  S
C1663      H1667   1.111       .  S
C1663      H1668   1.104       .  S
C1663      H1669   1.104       .  S
C1666      H1670   1.089       .  S
C1666      H1671   1.111       .  S
C1666      H1672   1.111       .  S
C1673      C1674   1.424       .  A
C1673      C1678   1.404       .  A
C1673      H1680   1.084       .  S
C1674      C1675   1.446       .  A
C1675      C1682   1.506       .  S
C1675      C1676   1.394       .  A
C1676      C1677   1.381       .  A
C1676      H1681   1.086       .  S
C1677      C1678   1.403       .  A
C1678      C1679   1.498       .  S
C1679      H1683   1.111       .  S
C1679      H1684   1.110       .  S
C1679      H1685   1.104       .  S
C1682      H1686   1.106       .  S
C1682      H1687   1.105       .  S
C1682      H1688   1.111       .  S
C1689      C1690   1.435       .  A
C1689      C1694   1.413       .  A
C1689      H1696   1.076       .  S
C1690      C1691   1.451       .  A
C1691      C1698   1.504       .  S
C1691      C1692   1.415       .  A
C1692      C1693   1.408       .  A
C1692      H1697   1.074       .  S
C1693      C1694   1.421       .  A
C1694      C1695   1.512       .  S
C1695      H1699   1.109       .  S
C1695      H1700   1.108       .  S
C1695      H1701   1.104       .  S
C1698      H1702   1.097       .  S
C1698      H1703   1.106       .  S
C1698      H1704   1.112       .  S
C1705      C1706   1.421       .  A
C1705      C1710   1.410       .  A
C1705      H1712   1.084       .  S
C1706      C1707   1.424       .  A
C1707      C1714   1.486       .  S
C1707      C1708   1.416       .  A
C1708      C1709   1.413       .  A
C1708      H1713   1.071       .  S
C1709      C1710   1.423       .  A
C1710      C1711   1.503       .  S
C1711      H1715   1.111       .  S
C1711      H1716   1.107       .  S
C1711      H1717   1.101   1_565  S
C1714      H1718   1.102       .  S
C1714      H1719   1.101       .  S
C1714      H1720   1.111       .  S
C1721      C1722   1.410       .  A
C1721      C1726   1.407       .  A
C1721      H1728   1.076       .  S
C1722      C1723   1.437       .  A
C1723      C1730   1.510       .  S
C1723      C1724   1.421       .  A
C1724      C1725   1.422       .  A
C1724      H1729   1.076       .  S
C1725      C1726   1.433       .  A
C1726      C1727   1.502   1_565  S
C1727      H1731   1.106   1_545  S
C1727      H1732   1.099       .  S
C1727      H1733   1.109   1_545  S
C1730      H1734   1.106       .  S
C1730      H1735   1.110       .  S
C1730      H1736   1.109       .  S
C1737      C1738   1.410       .  A
C1737      C1742   1.393       .  A
C1737      H1744   1.071       .  S
C1738      C1739   1.446       .  A
C1739      C1746   1.518       .  S
C1739      C1740   1.403       .  A
C1740      C1741   1.386       .  A
C1740      H1745   1.078       .  S
C1741      C1742   1.406       .  A
C1742      C1743   1.504       .  S
C1743      H1747   1.110       .  S
C1743      H1748   1.110       .  S
C1743      H1749   1.106       .  S
C1746      H1750   1.111       .  S
C1746      H1751   1.096       .  S
C1746      H1752   1.107       .  S
C1753      C1754   1.415       .  A
C1753      C1758   1.403       .  A
C1753      H1760   1.076       .  S
C1754      C1755   1.435       .  A
C1755      C1762   1.516       .  S
C1755      C1756   1.405       .  A
C1756      C1757   1.416       .  A
C1756      H1761   1.080       .  S
C1757      C1758   1.427       .  A
C1758      C1759   1.508       .  S
C1759      H1763   1.110       .  S
C1759      H1764   1.108       .  S
C1759      H1765   1.094       .  S
C1762      H1766   1.101       .  S
C1762      H1767   1.111       .  S
C1762      H1768   1.107       .  S
C1769      C1770   1.422       .  A
C1769      C1774   1.424       .  A
C1769      H1776   1.083       .  S
C1770      C1771   1.434       .  A
C1771      C1778   1.490   1_565  S
C1771      C1772   1.396       .  A
C1772      C1773   1.400       .  A
C1772      H1777   1.078       .  S
C1773      C1774   1.440       .  A
C1774      C1775   1.506       .  S
C1775      H1779   1.110       .  S
C1775      H1780   1.109       .  S
C1775      H1781   1.096       .  S
C1778      H1782   1.098       .  S
C1778      H1783   1.097       .  S
C1778      H1784   1.097       .  S
C1785      C1786   1.414       .  A
C1785      C1790   1.429       .  A
C1785      H1792   1.081       .  S
C1786      C1787   1.404       .  A
C1787      C1794   1.515       .  S
C1787      C1788   1.401       .  A
C1788      C1789   1.426       .  A
C1788      H1793   1.078   1_565  S
C1789      C1790   1.453       .  A
C1790      C1791   1.505       .  S
C1791      H1795   1.111       .  S
C1791      H1796   1.102       .  S
C1791      H1797   1.100       .  S
C1794      H1798   1.111       .  S
C1794      H1799   1.099       .  S
C1794      H1800   1.105       .  S
C1801      C1802   1.420       .  A
C1801      C1806   1.395       .  A
C1801      H1808   1.075       .  S
C1802      C1803   1.445       .  A
C1803      C1810   1.501       .  S
C1803      C1804   1.411       .  A
C1804      C1805   1.387       .  A
C1804      H1809   1.085       .  S
C1805      C1806   1.406       .  A
C1806      C1807   1.514       .  S
C1807      H1811   1.111       .  S
C1807      H1812   1.108       .  S
C1807      H1813   1.111       .  S
C1810      H1814   1.100       .  S
C1810      H1815   1.100       .  S
C1810      H1816   1.111       .  S
C1817      C1818   1.410       .  A
C1817      C1822   1.415       .  A
C1817      H1824   1.066       .  S
C1818      C1819   1.439       .  A
C1819      C1826   1.518       .  S
C1819      C1820   1.394       .  A
C1820      C1821   1.411       .  A
C1820      H1825   1.076       .  S
C1821      C1822   1.430       .  A
C1822      C1823   1.511       .  S
C1823      H1827   1.110       .  S
C1823      H1828   1.111       .  S
C1823      H1829   1.103       .  S
C1826      H1830   1.106       .  S
C1826      H1831   1.107       .  S
C1826      H1832   1.112       .  S
C1833      C1834   1.422       .  A
C1833      C1838   1.436       .  A
C1833      H1840   1.077       .  S
C1834      C1835   1.424       .  A
C1835      C1842   1.522   1_565  S
C1835      C1836   1.389       .  A
C1836      C1837   1.421       .  A
C1836      H1841   1.054       .  S
C1837      C1838   1.445       .  A
C1838      C1839   1.497       .  S
C1839      H1843   1.111       .  S
C1839      H1844   1.108       .  S
C1839      H1845   1.107       .  S
C1842      H1846   1.099       .  S
C1842      H1847   1.100       .  S
C1842      H1848   1.083       .  S
C1849      C1850   1.417       .  A
C1849      C1854   1.413       .  A
C1849      H1856   1.082       .  S
C1850      C1851   1.436       .  A
C1851      C1858   1.515       .  S
C1851      C1852   1.407       .  A
C1852      C1853   1.419       .  A
C1852      H1857   1.065       .  S
C1853      C1854   1.429       .  A
C1854      C1855   1.507       .  S
C1855      H1859   1.111       .  S
C1855      H1860   1.110       .  S
C1855      H1861   1.104       .  S
C1858      H1862   1.111       .  S
C1858      H1863   1.102       .  S
C1858      H1864   1.110       .  S
C1865      C1866   1.429       .  A
C1865      C1870   1.416       .  A
C1865      H1872   1.080       .  S
C1866      C1867   1.429       .  A
C1867      C1874   1.484       .  S
C1867      C1868   1.372       .  A
C1868      C1869   1.379       .  A
C1868      H1873   1.081       .  S
C1869      C1870   1.405       .  A
C1870      C1871   1.503       .  S
C1871      H1875   1.111       .  S
C1871      H1876   1.110       .  S
C1871      H1877   1.111       .  S
C1874      H1878   1.087       .  S
C1874      H1879   1.078       .  S
C1874      H1880   1.113       .  S
C1881      C1882   1.414       .  A
C1881      C1886   1.410       .  A
C1881      H1888   1.080       .  S
C1882      C1883   1.438       .  A
C1883      C1890   1.520       .  S
C1883      C1884   1.407       .  A
C1884      C1885   1.418       .  A
C1884      H1889   1.076       .  S
C1885      C1886   1.437       .  A
C1886      C1887   1.510       .  S
C1887      H1891   1.110       .  S
C1887      H1892   1.094       .  S
C1887      H1893   1.109       .  S
C1890      H1894   1.096       .  S
C1890      H1895   1.109       .  S
C1890      H1896   1.112       .  S
C1897      C1898   1.424       .  A
C1897      C1902   1.422       .  A
C1897      H1904   1.076       .  S
C1898      C1899   1.429       .  A
C1899      C1906   1.512       .  S
C1899      C1900   1.397       .  A
C1900      C1901   1.420       .  A
C1900      H1905   1.084       .  S
C1901      C1902   1.436       .  A
C1902      C1903   1.510       .  S
C1903      H1907   1.112       .  S
C1903      H1908   1.095       .  S
C1903      H1909   1.108       .  S
C1906      H1910   1.106       .  S
C1906      H1911   1.105       .  S
C1906      H1912   1.107       .  S
C1913      C1914   1.408       .  A
C1913      C1918   1.401       .  A
C1913      H1920   1.079       .  S
C1914      C1915   1.439       .  A
C1915      C1922   1.502       .  S
C1915      C1916   1.424       .  A
C1916      C1917   1.413       .  A
C1916      H1921   1.078       .  S
C1917      C1918   1.443       .  A
C1918      C1919   1.510       .  S
C1919      H1923   1.107   1_655  S
C1919      H1924   1.097       .  S
C1919      H1925   1.112       .  S
C1922      H1926   1.110       .  S
C1922      H1927   1.096       .  S
C1922      H1928   1.110       .  S
C1929      C1930   1.409       .  A
C1929      C1934   1.383       .  A
C1929      H1936   1.065       .  S
C1930      C1931   1.444       .  A
C1931      C1938   1.508       .  S
C1931      C1932   1.418       .  A
C1932      C1933   1.399       .  A
C1932      H1937   1.084       .  S
C1933      C1934   1.398       .  A
C1934      C1935   1.493       .  S
C1935      H1939   1.112       .  S
C1935      H1940   1.099       .  S
C1935      H1941   1.110       .  S
C1938      H1942   1.099       .  S
C1938      H1943   1.110       .  S
C1938      H1944   1.110       .  S
C1945      C1946   1.402       .  A
C1945      C1950   1.412       .  A
C1945      H1952   1.085       .  S
C1946      C1947   1.454       .  A
C1947      C1954   1.519       .  S
C1947      C1948   1.412       .  A
C1948      C1949   1.403       .  A
C1948      H1953   1.075       .  S
C1949      C1950   1.447       .  A
C1950      C1951   1.505       .  S
C1951      H1955   1.111       .  S
C1951      H1956   1.106       .  S
C1951      H1957   1.088       .  S
C1954      H1958   1.103       .  S
C1954      H1959   1.100       .  S
C1954      H1960   1.110       .  S
C1961      C1962   1.417       .  A
C1961      C1966   1.419       .  A
C1961      H1968   1.073       .  S
C1962      C1963   1.447       .  A
C1963      C1970   1.500       .  S
C1963      C1964   1.389       .  A
C1964      C1965   1.394       .  A
C1964      H1969   1.078       .  S
C1965      C1966   1.438       .  A
C1966      C1967   1.509       .  S
C1967      H1971   1.109       .  S
C1967      H1972   1.100       .  S
C1967      H1973   1.109       .  S
C1970      H1974   1.097       .  S
C1970      H1975   1.103       .  S
C1970      H1976   1.111       .  S
C1977      C1978   1.428       .  A
C1977      C1982   1.429       .  A
C1977      H1984   1.085       .  S
C1978      C1979   1.417       .  A
C1979      C1986   1.503       .  S
C1979      C1980   1.388       .  A
C1980      C1981   1.399       .  A
C1980      H1985   1.042       .  S
C1981      C1982   1.454       .  A
C1982      C1983   1.515       .  S
C1983      H1987   1.106       .  S
C1983      H1988   1.095       .  S
C1983      H1989   1.110       .  S
C1986      H1990   1.101       .  S
C1986      H1991   1.092       .  S
C1986      H1992   1.099   1_655  S
C1993      C1994   1.423       .  A
C1993      C1998   1.393       .  A
C1993      H2000   1.066       .  S
C1994      C1995   1.439       .  A
C1995      C2002   1.509       .  S
C1995      C1996   1.423       .  A
C1996      C1997   1.410       .  A
C1996      H2001   1.084       .  S
C1997      C1998   1.407       .  A
C1998      C1999   1.518       .  S
C1999      H2003   1.109       .  S
C1999      H2004   1.082       .  S
C1999      H2005   1.110       .  S
C2002      H2006   1.111       .  S
C2002      H2007   1.104       .  S
C2002      H2008   1.110       .  S
C2009      C2010   1.413       .  A
C2009      C2014   1.401       .  A
C2009      H2016   1.077       .  S
C2010      C2011   1.436       .  A
C2011      C2018   1.509       .  S
C2011      C2012   1.416       .  A
C2012      C2013   1.415       .  A
C2012      H2017   1.084       .  S
C2013      C2014   1.439       .  A
C2014      C2015   1.517       .  S
C2015      H2019   1.111       .  S
C2015      H2020   1.103       .  S
C2015      H2021   1.107       .  S
C2018      H2022   1.101       .  S
C2018      H2023   1.105       .  S
C2018      H2024   1.111       .  S
C2025      C2026   1.417       .  A
C2025      C2030   1.416       .  A
C2025      H2032   1.079       .  S
C2026      C2027   1.422       .  A
C2027      C2034   1.506       .  S
C2027      C2028   1.391       .  A
C2028      C2029   1.417       .  A
C2028      H2033   1.083       .  S
C2029      C2030   1.443       .  A
C2030      C2031   1.499       .  S
C2031      H2035   1.111       .  S
C2031      H2036   1.097       .  S
C2031      H2037   1.103       .  S
C2034      H2038   1.107       .  S
C2034      H2039   1.101       .  S
C2034      H2040   1.104   1_655  S
C2041      C2042   1.412       .  A
C2041      C2046   1.415       .  A
C2041      H2048   1.074       .  S
C2042      C2043   1.438       .  A
C2043      C2050   1.520       .  S
C2043      C2044   1.404       .  A
C2044      C2045   1.413       .  A
C2044      H2049   1.084       .  S
C2045      C2046   1.437       .  A
C2046      C2047   1.508       .  S
C2047      H2051   1.111       .  S
C2047      H2052   1.101       .  S
C2047      H2053   1.099       .  S
C2050      H2054   1.103       .  S
C2050      H2055   1.111       .  S
C2050      H2056   1.104       .  S
C2057      C2058   1.413       .  A
C2057      C2062   1.393       .  A
C2057      H2064   1.080       .  S
C2058      C2059   1.438       .  A
C2059      C2066   1.508       .  S
C2059      C2060   1.408       .  A
C2060      C2061   1.397       .  A
C2060      H2065   1.085       .  S
C2061      C2062   1.405       .  A
C2062      C2063   1.501       .  S
C2063      H2067   1.110       .  S
C2063      H2068   1.109       .  S
C2063      H2069   1.107       .  S
C2066      H2070   1.111       .  S
C2066      H2071   1.103       .  S
C2066      H2072   1.111       .  S
C2073      C2074   1.409       .  A
C2073      C2078   1.411       .  A
C2073      H2080   1.083       .  S
C2074      C2075   1.434       .  A
C2075      C2082   1.518       .  S
C2075      C2076   1.409       .  A
C2076      C2077   1.413       .  A
C2076      H2081   1.077       .  S
C2077      C2078   1.435       .  A
C2078      C2079   1.510       .  S
C2079      H2083   1.102       .  S
C2079      H2084   1.111       .  S
C2079      H2085   1.099       .  S
C2082      H2086   1.107       .  S
C2082      H2087   1.105       .  S
C2082      H2088   1.111       .  S
C2089      C2090   1.415       .  A
C2089      C2094   1.403       .  A
C2089      H2096   1.074       .  S
C2090      C2091   1.437       .  A
C2091      C2098   1.520       .  S
C2091      C2092   1.408       .  A
C2092      C2093   1.417       .  A
C2092      H2097   1.081       .  S
C2093      C2094   1.427       .  A
C2094      C2095   1.509       .  S
C2095      H2099   1.111       .  S
C2095      H2100   1.107       .  S
C2095      H2101   1.102       .  S
C2098      H2102   1.107   1_655  S
C2098      H2103   1.103       .  S
C2098      H2104   1.111       .  S
C2105      C2106   1.421       .  A
C2105      C2110   1.400       .  A
C2105      H2112   1.057       .  S
C2106      C2107   1.447       .  A
C2107      C2114   1.513       .  S
C2107      C2108   1.416       .  A
C2108      C2109   1.415       .  A
C2108      H2113   1.082       .  S
C2109      C2110   1.410       .  A
C2110      C2111   1.501   1_655  S
C2111      H2115   1.103       .  S
C2111      H2116   1.112   1_455  S
C2111      H2117   1.103       .  S
C2114      H2118   1.096       .  S
C2114      H2119   1.105       .  S
C2114      H2120   1.111       .  S
C2121      C2122   1.417       .  A
C2121      C2126   1.394       .  A
C2121      H2128   1.075       .  S
C2122      C2123   1.440       .  A
C2123      C2130   1.508       .  S
C2123      C2124   1.408       .  A
C2124      C2125   1.395       .  A
C2124      H2129   1.084       .  S
C2125      C2126   1.410       .  A
C2126      C2127   1.512       .  S
C2127      H2131   1.110       .  S
C2127      H2132   1.102       .  S
C2127      H2133   1.111       .  S
C2130      H2134   1.103       .  S
C2130      H2135   1.111       .  S
C2130      H2136   1.104       .  S
