geometry optimzed in LAMMPS
_audit_creation_date              2020-12-01 
_audit_creation_method            'lammps2cif' 
_symmetry_space_group_name_H-M    'P1' 
_symmetry_Int_Tables_number       1 
_symmetry_cell_setting            triclinic 
loop_ 
_symmetry_equiv_pos_as_xyz 
  x,y,z 
_cell_length_a                    35.8222785 
_cell_length_b                    39.11711437843048 
_cell_length_c                    39.01525077480079 
_cell_angle_alpha                 81.95125371107392 
_cell_angle_beta                  91.26236108324505 
_cell_angle_gamma                 88.31720947127714 
loop_ 
_atom_site_label 
_atom_site_type_symbol 
_atom_site_fract_x 
_atom_site_fract_y 
_atom_site_fract_z 
_atom_site_charge 
C1          C  0.07695310  0.09845457  0.08907802     0.86300
C2          C  0.10025965  0.07423859  0.11693617    -0.53900
C3          C  0.12609827  0.09038114  0.13441816     0.09200
C4          C  0.12477484  0.13113150  0.12146375     0.20200
C5          C  0.05901562  0.12676330  0.10783848    -0.54700
C6          C  0.08329014  0.14526363  0.12368243     0.09300
C7          C  0.10637913  0.11696630  0.06507208    -0.54200
C8          C  0.13197475  0.13428390  0.08166837     0.09900
H9          H  0.09834561  0.04648217  0.12148647     0.14400
H10         H  0.14367029  0.14612505  0.13587654     0.00200
H11         H  0.02938029  0.13348868  0.10598712     0.14700
H12         H  0.10594547  0.11749370  0.03716639     0.14500
C13         C  0.07221777  0.17983654  0.13725229     0.29800
C14         C  0.07095419  0.24133184  0.16390443     0.29800
C15         C  0.08359003  0.21153325  0.11265524    -0.06400
C16         C  0.03203403  0.19233295  0.14844253    -0.07200
C17         C  0.09566292  0.18108102  0.16971484    -0.07000
C18         C  0.08254546  0.24294646  0.12588504    -0.06400
C19         C  0.03138867  0.22412893  0.16248795    -0.07200
C20         C  0.09293307  0.21148263  0.18394796    -0.07000
C21         C  0.07332042  0.26760841  0.09744175    -0.32400
N22         N  0.07419693  0.25393020  0.06736716     0.14100
C23         C  0.07642402  0.21934260  0.07739517    -0.32400
H24         H  0.07005426  0.20060386  0.06038327     0.16000
C25         C  0.49434598  0.22981692  0.17219451    -0.31400
N26         N  0.47245930  0.20373203  0.16403144     0.12800
C27         C  0.49519276  0.18103539  0.14956108    -0.31400
C28         C  0.09001517  0.20187887  0.21896704    -0.31700
N29         N  0.09649593  0.16789852  0.22678063     0.13300
H30         H  0.07675825  0.21772609  0.23599755     0.15900
C31         C  0.09879277  0.15499804  0.19687831    -0.31700
H32         H  0.09403767  0.12897420  0.19406696     0.15900
H33         H  0.48565812  0.15766095  0.14085430     0.15900
H34         H  0.06429620  0.29405050  0.09854626     0.16000
H35         H  0.48395576  0.25157804  0.18386373     0.15900
C36         C  0.07500482  0.31617369  0.22030118     0.86300
C37         C  0.10561314  0.33719039  0.20077453    -0.53900
C38         C  0.13280959  0.31812765  0.18801728     0.09200
C39         C  0.12527651  0.27803327  0.19596963     0.20200
C40         C  0.05852819  0.29352155  0.19512128    -0.54700
C41         C  0.08350964  0.27280827  0.18197558     0.09300
C42         C  0.09700813  0.29114690  0.24879604    -0.54200
C43         C  0.12398124  0.27090439  0.23698783     0.09900
H44         H  0.10689852  0.36476364  0.19869917     0.14400
H45         H  0.14610107  0.26146929  0.18490329     0.00200
H46         H  0.02876392  0.29261575  0.18985856     0.14700
H47         H  0.09176665  0.28976224  0.27625110     0.14500
C48         C  0.21612747  0.04680275  0.20332704     0.29800
C49         C  0.15689992  0.06975154  0.15938856     0.29800
C50         C  0.22431403  0.07353335  0.17333100    -0.06400
C51         C  0.20000073  0.01824881  0.18432816    -0.07200
C52         C  0.18143967  0.06056084  0.21985055    -0.07000
C53         C  0.19479640  0.08792084  0.15341331    -0.06400
C54         C  0.16938297  0.02889387  0.16101824    -0.07200
C55         C  0.15093818  0.07114387  0.19825439    -0.07000
C56         C  0.21044687  0.11394436  0.13109532    -0.32400
N57         N  0.24806875  0.11025114  0.13179649     0.14100
C58         C  0.25643444  0.08363038  0.15696648    -0.32400
H59         H  0.28305458  0.07022692  0.16168770     0.16000
C60         C  0.15817922  0.49784206  0.14938146    -0.31400
N61         N  0.18097007  0.47023049  0.16430657     0.12800
C62         C  0.20629356  0.48287894  0.18503977    -0.31400
C63         C  0.12117699  0.07308061  0.22028838    -0.31700
N64         N  0.13375942  0.06913483  0.25390779     0.13300
H65         H  0.09199368  0.07662615  0.21261406     0.15900
C66         C  0.17026926  0.05925606  0.25351692    -0.31700
H67         H  0.18758152  0.05078276  0.27618736     0.15900
H68         H  0.22891321  0.46731264  0.19837198     0.15900
H69         H  0.19624023  0.13592663  0.11828668     0.16000
H70         H  0.13619091  0.49566101  0.13046849     0.15900
C71         C  0.32797733  0.12423362  0.06890407     0.86300
C72         C  0.34742669  0.14418236  0.09509788    -0.53900
C73         C  0.32361217  0.16431503  0.11119430     0.09200
C74         C  0.28169027  0.16351531  0.09700959     0.20200
C75         C  0.29680094  0.10515810  0.09030632    -0.54700
C76         C  0.27323373  0.12524995  0.10557969     0.09300
C77         C  0.30694132  0.15165650  0.04212212    -0.54200
C78         C  0.28116810  0.17129249  0.05574157     0.09900
H79         H  0.37633584  0.13899801  0.10349429     0.14400
H80         H  0.26095351  0.17936837  0.10903667     0.00200
H81         H  0.29452524  0.07761064  0.09593225     0.14700
H82         H  0.31009618  0.15411942  0.01436942     0.14500
C83         C  0.07070068  0.11568271  0.31137973     0.86300
C84         C  0.06507173  0.14296816  0.27891613    -0.53900
C85         C  0.09615421  0.14816983  0.26025209     0.09200
C86         C  0.13056654  0.12820435  0.27589598     0.20200
C87         C  0.08856035  0.08368463  0.29751321    -0.54700
C88         C  0.11969280  0.09050403  0.27861251     0.09300
C89         C  0.10310649  0.13081932  0.33241023    -0.54200
C90         C  0.13478107  0.13819879  0.31318588     0.09900
H91         H  0.03839608  0.15549892  0.27020150     0.14400
H92         H  0.15485110  0.13378048  0.25902823     0.00200
H93         H  0.07528117  0.05892219  0.29924985     0.14700
H94         H  0.10004623  0.13777895  0.35815690     0.14500
C95         C  0.33578048  0.19752088  0.21150672     0.29800
C96         C  0.33321975  0.17501975  0.14727279     0.29800
C97         C  0.31127701  0.21720819  0.18353219    -0.06400
C98         C  0.37444200  0.19950300  0.19151589    -0.07200
C99         C  0.32626972  0.15949531  0.21085895    -0.07000
C100        C  0.30663257  0.20439716  0.15264076    -0.06400
C101        C  0.37256984  0.18785036  0.15843803    -0.07200
C102        C  0.32502164  0.14819824  0.17839903    -0.07000
C103        C  0.29591269  0.23172964  0.12868922    -0.32400
N104        N  0.29754210  0.26067038  0.14288805     0.14100
C105        C  0.31042846  0.25216026  0.17523982    -0.32400
H106        H  0.32472687  0.26953693  0.18991744     0.16000
C107        C  0.40857523  0.18901493  0.14538097    -0.31400
N108        N  0.43268020  0.20109728  0.16821890     0.12800
C109        C  0.41219712  0.20784648  0.19619476    -0.31400
C110        C  0.32927748  0.11276701  0.18417270    -0.31700
N111        N  0.33031297  0.10149334  0.21866248     0.13300
H112        H  0.33378525  0.09643371  0.16443087     0.15900
C113        C  0.33246265  0.13009232  0.23453339    -0.31700
H114        H  0.33971478  0.12925094  0.26165587     0.15900
H115        H  0.42401926  0.21685155  0.21892717     0.15900
H116        H  0.29516587  0.23091601  0.10184388     0.16000
H117        H  0.41677771  0.18116939  0.12106682     0.15900
C118        C  0.33095224  0.34281836  0.09551523     0.86300
C119        C  0.29793103  0.36498431  0.10784029    -0.53900
C120        C  0.26516431  0.34756004  0.11121702     0.09200
C121        C  0.26905283  0.31031819  0.10061440     0.20200
C122        C  0.33232055  0.31015719  0.12181888    -0.54700
C123        C  0.30036209  0.29341827  0.12349252     0.09300
C124        C  0.31694468  0.33034277  0.06099057    -0.54200
C125        C  0.28448240  0.31243182  0.06426743     0.09900
H126        H  0.30090812  0.38987552  0.11660592     0.14400
H127        H  0.24418665  0.29402743  0.10381193     0.00200
H128        H  0.35711984  0.29986972  0.13685597     0.14700
H129        H  0.33326276  0.33208832  0.03773643     0.14500
C130        C  0.29488621  0.02007801  0.27205574     0.86300
C131        C  0.26405615  0.01503555  0.24558868    -0.53900
C132        C  0.24892722  0.04460903  0.22860966     0.09200
C133        C  0.26678163  0.07767852  0.23906360     0.20200
C134        C  0.32378063  0.04230615  0.25045211    -0.54700
C135        C  0.30879602  0.07289229  0.23383428     0.09300
C136        C  0.27735759  0.04497391  0.29586203    -0.54200
C137        C  0.26323273  0.07554466  0.27816136     0.09900
H138        H  0.25413319  0.98997701  0.24191557     0.14400
H139        H  0.25476231  0.10244200  0.22521736     0.00200
H140        H  0.35281608  0.03513531  0.24811227     0.14700
H141        H  0.27730046  0.03926104  0.32389687     0.14500
C142        C  0.16764908  0.33485052  0.16968036     0.29800
C143        C  0.23143054  0.35396754  0.13397821     0.29800
C144        C  0.16817548  0.32923813  0.13235709    -0.06400
C145        C  0.17710744  0.37585202  0.16551104    -0.07200
C146        C  0.20474933  0.31663859  0.18379415    -0.07000
C147        C  0.19862455  0.34076649  0.11414766    -0.06400
C148        C  0.21016554  0.38486014  0.14676109    -0.07200
C149        C  0.23654240  0.32915865  0.16857638    -0.07000
C150        C  0.19036125  0.33982838  0.07966191    -0.32400
N151        N  0.15749214  0.32426790  0.07724965     0.14100
C152        C  0.14337293  0.31864803  0.10939975    -0.32400
H153        H  0.11676131  0.30910028  0.11614759     0.16000
C154        C  0.21273735  0.42065269  0.14260507    -0.31400
N155        N  0.18284066  0.43510217  0.15712646     0.12800
C156        C  0.16151782  0.40828365  0.17159610    -0.31400
C157        C  0.26627335  0.31398935  0.18951510    -0.31700
N158        N  0.25399981  0.28705664  0.21225583     0.13300
H159        H  0.29504846  0.32137670  0.18713944     0.15900
C160        C  0.21649607  0.28741142  0.20613286    -0.31700
H161        H  0.19971084  0.26570269  0.21255085     0.15900
H162        H  0.13679303  0.41232341  0.18600142     0.15900
H163        H  0.20760374  0.34921730  0.05825491     0.16000
H164        H  0.23518087  0.43516872  0.13016811     0.15900
C165        C  0.11523358  0.31136394  0.98999823     0.86300
C166        C  0.08376879  0.29012518  0.00965490    -0.53900
C167        C  0.09684251  0.26986554  0.03957321     0.09200
C168        C  0.13878907  0.27257494  0.04613559     0.20200
C169        C  0.13163854  0.33137262  0.01805861    -0.54700
C170        C  0.14362774  0.31095779  0.04720063     0.09300
C171        C  0.14560559  0.28472922  0.98363009    -0.54200
C172        C  0.15770389  0.26403343  0.01268670     0.09900
H173        H  0.05428878  0.29303961  0.00260230     0.14400
H174        H  0.14924414  0.25677872  0.07051879     0.00200
H175        H  0.13246609  0.35934280  0.01569027     0.14700
H176        H  0.15765636  0.28367132  0.95852762     0.14500
C177        C  0.32347910  0.25320048  0.28719239     0.86300
C178        C  0.34356059  0.22831729  0.26568186    -0.53900
C179        C  0.32080202  0.21309964  0.24434600     0.09200
C180        C  0.27743028  0.22449457  0.24849596     0.20200
C181        C  0.30087995  0.27934867  0.26034798    -0.54700
C182        C  0.27626764  0.26510423  0.23984042     0.09300
C183        C  0.29309290  0.23250143  0.30750392    -0.54200
C184        C  0.26815150  0.21740206  0.28837805     0.09900
H185        H  0.37377789  0.22583440  0.26493683     0.14400
H186        H  0.25761734  0.21228697  0.23198568     0.00200
H187        H  0.30266448  0.30712954  0.25787202     0.14700
H188        H  0.29106616  0.23139457  0.33508549     0.14500
C189        C  0.25042764  0.19429145  0.03341961     0.29800
C190        C  0.19054718  0.23852467  0.01474902     0.29800
C191        C  0.25583536  0.23310679  0.03666820    -0.06400
C192        C  0.23703768  0.19709213  0.99341698    -0.07200
C193        C  0.21281634  0.18464771  0.05040579    -0.07000
C194        C  0.22530496  0.25467079  0.02778707    -0.06400
C195        C  0.20576638  0.22024628  0.98453367    -0.07200
C196        C  0.18327563  0.20783443  0.04189954    -0.07000
C197        C  0.23539809  0.28803290  0.03045436    -0.32400
N198        N  0.27161134  0.28835594  0.04135019     0.17800
C199        C  0.28492189  0.25496920  0.04268585    -0.32400
H200        H  0.31349992  0.24665552  0.04972725     0.16000
C201        C  0.19325377  0.21870436  0.45098720    -0.31400
N202        N  0.21597783  0.19592082  0.43731252     0.12800
C203        C  0.24249603  0.18318954  0.46255932    -0.31400
C204        C  0.15073242  0.19023453  0.04845424    -0.31700
N205        N  0.15859703  0.15750369  0.06306854     0.13300
H206        H  0.12383443  0.19927712  0.03797610     0.15900
C207        C  0.19608588  0.15287448  0.05926550    -0.31700
H208        H  0.21052822  0.12792699  0.06258503     0.15900
H209        H  0.26391425  0.16393051  0.45928559     0.15900
H210        H  0.21722267  0.31055385  0.02479293     0.16000
H211        H  0.16937429  0.23224285  0.43738051     0.15900
C212        C  0.23323572  0.19810666  0.30432833     0.29800
C213        C  0.16934410  0.16049881  0.31953691     0.29800
C214        C  0.23434000  0.16027707  0.29786347    -0.06400
C215        C  0.22162460  0.19334713  0.34402830    -0.07200
C216        C  0.19647721  0.21309066  0.28623987    -0.07000
C217        C  0.20341571  0.14138084  0.30700453    -0.06400
C218        C  0.18844699  0.17443130  0.35175728    -0.07200
C219        C  0.16496106  0.19432176  0.29352852    -0.07000
C220        C  0.21298751  0.10696782  0.30585245    -0.32400
N221        N  0.24801974  0.10447428  0.29374203     0.14100
C222        C  0.26127158  0.13710187  0.28953675    -0.32400
H223        H  0.28876150  0.14402260  0.28206004     0.16000
C224        C  0.18395335  0.17275058  0.38770562    -0.31400
N225        N  0.21290679  0.18863987  0.40220088     0.12800
C226        C  0.23544706  0.20137461  0.37592100    -0.31400
C227        C  0.13472217  0.21537287  0.27961991    -0.31700
N228        N  0.14672638  0.24487468  0.26073269     0.13300
H229        H  0.10591381  0.20996432  0.28491727     0.15900
C230        C  0.18380404  0.24522350  0.26962873    -0.31700
H231        H  0.20014738  0.26808326  0.26730580     0.15900
H232        H  0.25975182  0.21596861  0.38016226     0.15900
H233        H  0.19537706  0.08552512  0.31353295     0.16000
H234        H  0.16125163  0.16070543  0.40217249     0.15900
N235        N  0.38835428  0.52057143  0.44925370    -0.06300
N236        N  0.38349297  0.04141125  0.47329557    -0.58400
N237        N  0.38878993  0.48115258  0.37333748    -0.06000
N238        N  0.89557555  0.50067156  0.34413240    -0.60500
N239        N  0.36090672  0.49492101  0.38849263    -0.05600
N240        N  0.35584495  0.02501974  0.37713525    -0.58400
N241        N  0.41911920  0.52316392  0.43124295    -0.05300
N242        N  0.93935334  0.54762814  0.44099380    -0.60900
C243        C  0.91459839  0.05975374  0.46729641     0.95900
C244        C  0.87849998  0.02898763  0.34944954     0.95700
N245        N  0.47211048  0.40849975  0.40233503    -0.06500
N246        N  0.46944532  0.38119525  0.38637176    -0.59000
N247        N  0.49492694  0.48054127  0.42968924    -0.04600
N248        N  0.02428935  0.49119516  0.41175171    -0.60300
N249        N  0.50531236  0.45556662  0.45454733    -0.06500
N250        N  0.54204624  0.45270559  0.45595309    -0.59300
N251        N  0.46070554  0.43632129  0.38138929    -0.04200
N252        N  0.95166688  0.42842111  0.35057699    -0.60300
Mn253      Mn  0.44061452  0.48083218  0.40361157     1.18400
C254        C  0.45735955  0.39387906  0.35408657     0.98000
C255        C  0.55380330  0.47272867  0.42746236     0.98600
N256        N  0.32418760  0.42935572  0.44221029    -0.06500
N257        N  0.30362843  0.92152956  0.41703117    -0.62800
N258        N  0.36015319  0.43937037  0.51950509    -0.05300
N259        N  0.34478100  0.43469129  0.55021862    -0.63500
N260        N  0.34345206  0.46500604  0.49948350    -0.06000
N261        N  0.31797843  0.97438817  0.52017121    -0.63100
N262        N  0.33864886  0.39966956  0.45832106    -0.04900
N263        N  0.33018083  0.37447719  0.44034044    -0.63800
Mn264      Mn  0.35263299  0.97429698  0.44773504     1.10700
C265        C  0.30830535  0.88778538  0.41417298     0.99200
C266        C  0.32118348  0.95672889  0.55269719     0.99300
N267        N  0.47136119  0.40571716  0.51482008    -0.06100
N268        N  0.49583522  0.41663139  0.53649746    -0.61400
N269        N  0.41329650  0.35568543  0.47663850    -0.05400
N270        N  0.39745617  0.32718708  0.47023656    -0.58200
N271        N  0.44638739  0.35793641  0.46334142    -0.06700
N272        N  0.45351676  0.33113745  0.44716764    -0.61000
N273        N  0.43753600  0.40736996  0.52690106    -0.05700
N274        N  0.43832864  0.42304997  0.55453678    -0.58200
Mn275      Mn  0.47509612  0.40671199  0.45881148     1.20200
Mn276      Mn  0.38679919  0.39923853  0.49634501     1.10100
Cl277      Cl  0.41383173  0.44099495  0.45100105    -0.86100
C278        C  0.47501940  0.42591149  0.56260223     0.96200
C279        C  0.42275782  0.31185597  0.45167168     0.96000
C280        C  0.34986004  0.26855411  0.31168547    -0.05400
C281        C  0.35891279  0.30367337  0.30650759    -0.05400
C282        C  0.37617165  0.31848384  0.33284165    -0.23500
C283        C  0.38518387  0.29848931  0.36466109     0.18700
C284        C  0.37966631  0.26259787  0.36924051     0.15900
C285        C  0.36311630  0.24770447  0.34228533    -0.18600
C286        C  0.38937102  0.24261262  0.40119548    -0.20400
C287        C  0.40407105  0.25834188  0.42841908    -0.12900
C288        C  0.40932905  0.29398536  0.42366058     0.03700
C289        C  0.39948502  0.31391283  0.39203410    -0.25100
H290        H  0.35257265  0.32022695  0.28248053     0.08800
H291        H  0.38190220  0.34575909  0.32846358     0.12400
H292        H  0.35801406  0.22026431  0.34608718     0.12300
H293        H  0.38504352  0.21505877  0.40526441     0.12100
H294        H  0.41102317  0.24288389  0.45310999     0.12600
H295        H  0.40307686  0.34157031  0.38884959     0.14600
C296        C  0.10622863  0.33593973  0.95700607    -0.05400
C297        C  0.07244469  0.33593453  0.93820373    -0.05400
C298        C  0.06273961  0.36372419  0.91264223    -0.23500
C299        C  0.08436965  0.39331695  0.90894620     0.18700
C300        C  0.12002648  0.39184768  0.92518007     0.15900
C301        C  0.13218423  0.36154802  0.94615036    -0.18600
C302        C  0.13952899  0.42240630  0.92580564    -0.20400
C303        C  0.11988847  0.45416406  0.91865840    -0.12900
C304        C  0.08214741  0.45492216  0.90824916     0.03700
C305        C  0.06821330  0.42562938  0.89563788    -0.25100
H306        H  0.05313932  0.31527131  0.94382763     0.08800
H307        H  0.03645117  0.36360797  0.89889588     0.12400
H308        H  0.15945567  0.36068273  0.95893868     0.12300
H309        H  0.16723609  0.42168723  0.93765677     0.12100
H310        H  0.63022101  0.47742822  0.42445637     0.12600
H311        H  0.03973732  0.42680170  0.88563441     0.14600
C312        C  0.30738752  0.98492330  0.29159195    -0.05400
C313        C  0.34481922  0.97256571  0.29475518    -0.05400
C314        C  0.35431909  0.94083626  0.31501279    -0.23500
C315        C  0.32646645  0.92058534  0.33148513     0.18700
C316        C  0.28865461  0.93057048  0.32450579     0.15900
C317        C  0.27949775  0.96298302  0.30597554    -0.18600
C318        C  0.26064455  0.90910526  0.33874648    -0.20400
C319        C  0.27001020  0.88191113  0.36495861    -0.12900
C320        C  0.30651781  0.87888379  0.37899063     0.03700
C321        C  0.33532443  0.89308005  0.35794749    -0.25100
H322        H  0.36715482  0.98777104  0.28328745     0.08800
H323        H  0.38349641  0.93298724  0.31914028     0.12400
H324        H  0.25037984  0.97155653  0.30331037     0.12300
H325        H  0.23145138  0.91533783  0.33219361     0.12100
H326        H  0.24755365  0.86933777  0.37945274     0.12600
H327        H  0.36359958  0.38991944  0.36852196     0.14600
C328        C  0.48722935  0.40991793  0.10142190    -0.05400
C329        C  0.46710932  0.42718504  0.12486999    -0.05400
C330        C  0.43229409  0.41431144  0.13556099    -0.23500
C331        C  0.42036494  0.38406720  0.12337806     0.18700
C332        C  0.44757302  0.36245751  0.11025870     0.15900
C333        C  0.48437921  0.37385717  0.10687197    -0.18600
C334        C  0.43617026  0.33615158  0.09210124    -0.20400
C335        C  0.39851375  0.33355957  0.08375445    -0.12900
C336        C  0.37079614  0.35492878  0.09611916     0.03700
C337        C  0.38218149  0.37884676  0.11788840    -0.25100
H338        H  0.47296473  0.45374291  0.12732619     0.08800
H339        H  0.41304927  0.43055530  0.14761309     0.12400
H340        H  0.50389477  0.36267505  0.59276650     0.12300
H341        H  0.45649191  0.31980621  0.08137784     0.12100
H342        H  0.39076076  0.31319054  0.06910429     0.12600
H343        H  0.36175514  0.39445803  0.12919289     0.14600
C344        C  0.03199679  0.10703511  0.32641183    -0.05400
C345        C  0.02253368  0.10693055  0.36128181    -0.05400
C346        C  0.98654004  0.09725910  0.37262677    -0.23500
C347        C  0.95923085  0.08774415  0.34930773     0.18700
C348        C  0.96810689  0.08926243  0.31418381     0.15900
C349        C  0.00400162  0.09820499  0.30328878    -0.18600
C350        C  0.94148257  0.08020867  0.29049223    -0.20400
C351        C  0.40816294  0.06564685  0.30205289    -0.12900
C352        C  0.90001685  0.06035844  0.33735370     0.03700
C353        C  0.92429573  0.07448966  0.36041111    -0.25100
H354        H  0.04298999  0.11343453  0.37991049     0.08800
H355        H  0.98041876  0.09635570  0.39979813     0.12400
H356        H  0.01051368  0.09774880  0.27633614     0.12300
H357        H  0.44767725  0.08182705  0.26322578     0.12100
H358        H  0.39070613  0.05494065  0.28382711     0.12600
H359        H  0.91734102  0.07254564  0.38716103     0.14600
C360        C  0.35236616  0.09809843  0.05341576    -0.05400
C361        C  0.33576736  0.08793644  0.02356631    -0.05400
C362        C  0.31360272  0.05922313  0.02822372    -0.23500
C363        C  0.31855159  0.03611313  0.05875774     0.18700
C364        C  0.35001344  0.03875943  0.08064789     0.15900
C365        C  0.36775739  0.07068428  0.07775432    -0.18600
C366        C  0.36075780  0.00998231  0.10500773    -0.20400
C367        C  0.34315974  0.97851940  0.10303256    -0.12900
C368        C  0.31310943  0.97769185  0.07909933     0.03700
C369        C  0.29475729  0.00899029  0.06682068    -0.25100
H370        H  0.33163660  0.10587479  0.00000442     0.08800
H371        H  0.29318569  0.05507288  0.00845259     0.12400
H372        H  0.38678885  0.07588051  0.09821626     0.12300
H373        H  0.38464799  0.01078640  0.12234557     0.12100
H374        H  0.35605415  0.95480959  0.11597512     0.12600
H375        H  0.26945612  0.00868783  0.05100703     0.14600
C376        C  0.04417136  0.33662502  0.23461642    -0.05400
C377        C  0.03777125  0.37243850  0.22479337    -0.05400
C378        C  0.01241807  0.39059313  0.24261441    -0.23500
C379        C  0.99390614  0.37328175  0.27076709     0.18700
C380        C  0.99744580  0.33688733  0.27825404     0.15900
C381        C  0.02084289  0.31876070  0.25879418    -0.18600
C382        C  0.98139001  0.31951025  0.30768079    -0.20400
C383        C  0.96628281  0.33839033  0.33180928    -0.12900
C384        C  0.96382459  0.37457260  0.32530126     0.03700
C385        C  0.97523867  0.39186887  0.29359926    -0.25100
H386        H  0.05230080  0.38683145  0.20383329     0.08800
H387        H  0.00926252  0.41837955  0.23589824     0.12400
H388        H  0.02387873  0.29088288  0.26499489     0.12300
H389        H  0.98423734  0.29165027  0.31390760     0.12100
H390        H  0.45927697  0.32478673  0.35663733     0.12600
H391        H  0.97407787  0.41986826  0.28878122     0.14600
C392        C  0.93155208  0.07453429  0.99554353    -0.05400
C393        C  0.94429631  0.10961947  0.48578718    -0.05400
C394        C  0.97270793  0.11991317  0.00558161    -0.23500
C395        C  0.99301705  0.09646078  0.02995661     0.18700
C396        C  0.98073973  0.06251881  0.03911959     0.15900
C397        C  0.94915340  0.05207322  0.02251671    -0.18600
C398        C  0.00157953  0.03903503  0.06301671    -0.20400
C399        C  0.03420917  0.04930002  0.07821732    -0.12900
C400        C  0.04643762  0.08322463  0.06942983     0.03700
C401        C  0.02590197  0.10625338  0.04463390    -0.25100
H402        H  0.93197653  0.12644490  0.46376015     0.08800
H403        H  0.98431462  0.14657382  0.49632127     0.12400
H404        H  0.44104074  0.02540487  0.02747124     0.12300
H405        H  0.99256183  0.01282250  0.07004576     0.12100
H406        H  0.04859551  0.03078255  0.09742959     0.12600
H407        H  0.03487389  0.13255309  0.03790124     0.14600
C408        C  0.07743874  0.09845251  0.58899760     0.86300
C409        C  0.10082852  0.07390075  0.61662091    -0.53900
C410        C  0.12676065  0.08981292  0.63431836     0.09200
C411        C  0.12540376  0.13062775  0.62173035     0.20200
C412        C  0.05962547  0.12653703  0.60806745    -0.54700
C413        C  0.08397843  0.14472663  0.62416730     0.09300
C414        C  0.10685162  0.11712178  0.56512345    -0.54200
C415        C  0.13248023  0.13422359  0.58188089     0.09900
H416        H  0.09892172  0.04612259  0.62073589     0.14400
H417        H  0.14430181  0.14546513  0.63629862     0.00200
H418        H  0.03002232  0.13339268  0.60620477     0.14700
H419        H  0.10634985  0.11798514  0.53717763     0.14500
C420        C  0.07308406  0.17913487  0.63803118     0.29800
C421        C  0.07187041  0.24035665  0.66512711     0.29800
C422        C  0.08411594  0.21101115  0.61353302    -0.06400
C423        C  0.03301597  0.19135903  0.64960154    -0.07200
C424        C  0.09687481  0.18025718  0.67030127    -0.07000
C425        C  0.08312089  0.24229309  0.62702834    -0.06400
C426        C  0.03236195  0.22302280  0.66386626    -0.07200
C427        C  0.09414831  0.21051100  0.68477590    -0.07000
C428        C  0.07350977  0.26712012  0.59887434    -0.32400
N429        N  0.07409758  0.25369421  0.56867150     0.14100
C430        C  0.07647761  0.21907413  0.57838467    -0.32400
H431        H  0.06997623  0.20048727  0.56124167     0.16000
C432        C  0.49524642  0.22869442  0.67343222    -0.31400
N433        N  0.47341214  0.20269034  0.66498287     0.12800
C434        C  0.49618627  0.18009512  0.65046801    -0.31400
C435        C  0.09156785  0.20064693  0.71975316    -0.31700
N436        N  0.09841117  0.16670168  0.72729236     0.13300
H437        H  0.07821315  0.21623446  0.73696562     0.15900
C438        C  0.10047659  0.15402033  0.69727032    -0.31700
H439        H  0.09583825  0.12798546  0.69434199     0.15900
H440        H  0.48665609  0.15686475  0.64146148     0.15900
H441        H  0.06445625  0.29349657  0.60027677     0.16000
H442        H  0.48476284  0.25042893  0.68509025     0.15900
C443        C  0.07611906  0.31466684  0.72207969     0.86300
C444        C  0.10647292  0.33601107  0.70250398    -0.53900
C445        C  0.13363651  0.31718468  0.68937693     0.09200
C446        C  0.12630959  0.27701658  0.69705328     0.20200
C447        C  0.05954243  0.29218728  0.69680329    -0.54700
C448        C  0.08447592  0.27173331  0.68329828     0.09300
C449        C  0.09844296  0.28954323  0.75025334    -0.54200
C450        C  0.12534256  0.26951756  0.73807721     0.09900
H451        H  0.10759938  0.36360555  0.70068161     0.14400
H452        H  0.14707861  0.26065014  0.68566917     0.00200
H453        H  0.02974832  0.29115852  0.69176563     0.14700
H454        H  0.09344826  0.28789555  0.77777300     0.14500
C455        C  0.21734395  0.04623629  0.70288311     0.29800
C456        C  0.15772297  0.06908512  0.65919255     0.29800
C457        C  0.22526205  0.07298343  0.67278107    -0.06400
C458        C  0.20101068  0.01765201  0.68403385    -0.07200
C459        C  0.18277228  0.06005177  0.71956504    -0.07000
C460        C  0.19559890  0.08723172  0.65295020    -0.06400
C461        C  0.17020536  0.02822416  0.66089768    -0.07200
C462        C  0.15210135  0.07059366  0.69809776    -0.07000
C463        C  0.21095607  0.11373166  0.63098214    -0.32400
N464        N  0.24860658  0.11069737  0.63183842     0.14100
C465        C  0.25727865  0.08391282  0.65676284    -0.32400
H466        H  0.28404419  0.07078930  0.66136706     0.16000
C467        C  0.15877604  0.49708060  0.65079013    -0.31400
N468        N  0.18156353  0.46954912  0.66588033     0.12800
C469        C  0.20694317  0.48236267  0.68644334    -0.31400
C470        C  0.12235151  0.07187166  0.72026746    -0.31700
N471        N  0.13499010  0.06763994  0.75387590     0.13300
H472        H  0.09314160  0.07538317  0.71264991     0.15900
C473        C  0.17158494  0.05809204  0.75328139    -0.31700
H474        H  0.18894104  0.04932221  0.77585667     0.15900
H475        H  0.22962059  0.46689354  0.69979935     0.15900
H476        H  0.19651433  0.13553441  0.61817401     0.16000
H477        H  0.13677157  0.49476605  0.63193423     0.15900
C478        C  0.32770475  0.12450740  0.56820568     0.86300
C479        C  0.34765661  0.14433495  0.59428396    -0.53900
C480        C  0.32416437  0.16453497  0.61066498     0.09200
C481        C  0.28208210  0.16402404  0.59672592     0.20200
C482        C  0.29665656  0.10564852  0.58986975    -0.54700
C483        C  0.27343651  0.12578049  0.60536372     0.09300
C484        C  0.30669242  0.15205972  0.54157766    -0.54200
C485        C  0.28121462  0.17186492  0.55539358     0.09900
H486        H  0.37661321  0.13900629  0.60245109     0.14400
H487        H  0.26159377  0.17999913  0.60890559     0.00200
H488        H  0.29428137  0.07813152  0.59556323     0.14700
H489        H  0.30965542  0.15442649  0.51379786     0.14500
C490        C  0.07213893  0.11424922  0.81150958     0.86300
C491        C  0.06678773  0.14172116  0.77919918    -0.53900
C492        C  0.09791395  0.14673824  0.76059849     0.09200
C493        C  0.13216609  0.12649195  0.77617913     0.20200
C494        C  0.08970697  0.08222357  0.79745988    -0.54700
C495        C  0.12098366  0.08890281  0.77869578     0.09300
C496        C  0.10469320  0.12906397  0.83266462    -0.54200
C497        C  0.13644618  0.13632313  0.81349902     0.09900
H498        H  0.04026316  0.15458838  0.77053604     0.14400
H499        H  0.15649377  0.13198676  0.75934775     0.00200
H500        H  0.07617074  0.05759813  0.79899647     0.14700
H501        H  0.10162552  0.13604648  0.85840172     0.14500
C502        C  0.33650661  0.19702374  0.71131799     0.29800
C503        C  0.33405105  0.17490023  0.64689915     0.29800
C504        C  0.31228985  0.21707174  0.68334658    -0.06400
C505        C  0.37524713  0.19874013  0.69160497    -0.07200
C506        C  0.32662269  0.15915271  0.71042280    -0.07000
C507        C  0.30782475  0.20450328  0.65230270    -0.06400
C508        C  0.37349954  0.18728135  0.65842427    -0.07200
C509        C  0.32540193  0.14801923  0.67784786    -0.07000
C510        C  0.29751188  0.23198778  0.62840733    -0.32400
N511        N  0.29892341  0.26077297  0.64287684     0.14100
C512        C  0.31157225  0.25206014  0.67529272    -0.32400
H513        H  0.32569314  0.26932208  0.69022436     0.16000
C514        C  0.40964245  0.18827725  0.64568503    -0.31400
N515        N  0.43360650  0.20013418  0.66881063     0.12800
C516        C  0.41295590  0.20685310  0.69665883    -0.31400
C517        C  0.33031506  0.11262885  0.68349896    -0.31700
N518        N  0.33150760  0.10119769  0.71794333     0.13300
H519        H  0.33524292  0.09645053  0.66368404     0.15900
C520        C  0.33331359  0.12971805  0.73392429    -0.31700
H521        H  0.34108996  0.12883135  0.76093537     0.15900
H522        H  0.42463072  0.21570897  0.71952903     0.15900
H523        H  0.29726711  0.23137218  0.60153265     0.16000
H524        H  0.41801318  0.18049408  0.62138963     0.15900
C525        C  0.33100166  0.34351028  0.59565669     0.86300
C526        C  0.29785814  0.36528268  0.60831570    -0.53900
C527        C  0.26538032  0.34749208  0.61196982     0.09200
C528        C  0.26951071  0.31038308  0.60117986     0.20200
C529        C  0.33296239  0.31075735  0.62185859    -0.54700
C530        C  0.30121238  0.29369734  0.62373450     0.09300
C531        C  0.31683561  0.33100912  0.56117388    -0.54200
C532        C  0.28452526  0.31283376  0.56465117     0.09900
H533        H  0.30054764  0.39021100  0.61705930     0.14400
H534        H  0.24479347  0.29390882  0.60454175     0.00200
H535        H  0.35798318  0.30064842  0.63664457     0.14700
H536        H  0.33293910  0.33301268  0.53777890     0.14500
C537        C  0.29705370  0.01917968  0.77087638     0.86300
C538        C  0.26597233  0.01426310  0.74455243    -0.53900
C539        C  0.25041908  0.04389797  0.72801142     0.09200
C540        C  0.26825516  0.07686941  0.73867910     0.20200
C541        C  0.32559357  0.04180319  0.74927115    -0.54700
C542        C  0.31026126  0.07238574  0.73303266     0.09300
C543        C  0.27959192  0.04364083  0.79514335    -0.54200
C544        C  0.26509536  0.07426784  0.77786255     0.09900
H545        H  0.25624095  0.98921410  0.74069350     0.14400
H546        H  0.25597687  0.10167588  0.72517407     0.00200
H547        H  0.35474639  0.03499494  0.74685986     0.14700
H548        H  0.27986902  0.03762734  0.82316465     0.14500
C549        C  0.16830602  0.33413261  0.67092959     0.29800
C550        C  0.23180698  0.35353555  0.63496815     0.29800
C551        C  0.16856240  0.32880430  0.63351731    -0.06400
C552        C  0.17777170  0.37513443  0.66700640    -0.07200
C553        C  0.20548606  0.31585144  0.68469723    -0.07000
C554        C  0.19888281  0.34045875  0.61518552    -0.06400
C555        C  0.21071249  0.38426588  0.64812869    -0.07200
C556        C  0.23717157  0.32847638  0.66938360    -0.07000
C557        C  0.19034859  0.33976641  0.58070202    -0.32400
N558        N  0.15743174  0.32423787  0.57837951     0.14100
C559        C  0.14359392  0.31834665  0.61062476    -0.32400
H560        H  0.11706676  0.30865675  0.61748832     0.16000
C561        C  0.21330402  0.42003618  0.64410324    -0.31400
N562        N  0.18349841  0.43439010  0.65881290     0.12800
C563        C  0.16222242  0.40751975  0.67328469    -0.31400
C564        C  0.26700500  0.31329362  0.69019529    -0.31700
N565        N  0.25487148  0.28623187  0.71287365     0.13300
H566        H  0.29573356  0.32081721  0.68780582     0.15900
C567        C  0.21735253  0.28657550  0.70688454    -0.31700
H568        H  0.20061741  0.26484004  0.71324722     0.15900
H569        H  0.13750593  0.41146439  0.68774204     0.15900
H570        H  0.20739695  0.34938616  0.55923445     0.16000
H571        H  0.23564626  0.43461000  0.63155405     0.15900
C572        C  0.11422748  0.31167381  0.49135533     0.86300
C573        C  0.08307581  0.29022729  0.51118741    -0.53900
C574        C  0.09649631  0.26988389  0.54086209     0.09200
C575        C  0.13849110  0.27272481  0.54713568     0.20200
C576        C  0.13089615  0.33161265  0.51936559    -0.54700
C577        C  0.14326926  0.31109363  0.54833423     0.09300
C578        C  0.14464988  0.28521230  0.48458673    -0.54200
C579        C  0.15715821  0.26445624  0.51348796     0.09900
H580        H  0.05351655  0.29304006  0.50445209     0.14400
H581        H  0.14919398  0.25684836  0.57138355     0.00200
H582        H  0.13164281  0.35957948  0.51709035     0.14700
H583        H  0.15643274  0.28433802  0.45934710     0.14500
C584        C  0.32462175  0.25207407  0.78754539     0.86300
C585        C  0.34466052  0.22744476  0.76572032    -0.53900
C586        C  0.32180543  0.21236071  0.74432566     0.09200
C587        C  0.27849385  0.22354745  0.74872747     0.20200
C588        C  0.30182662  0.27832653  0.76093014    -0.54700
C589        C  0.27722128  0.26417595  0.74033527     0.09300
C590        C  0.29442136  0.23109370  0.80782062    -0.54200
C591        C  0.26947205  0.21605967  0.78865144     0.09900
H592        H  0.37487037  0.22503322  0.76485001     0.14400
H593        H  0.25866911  0.21141467  0.73216468     0.00200
H594        H  0.30352469  0.30610305  0.75861883     0.14700
H595        H  0.29258280  0.22964961  0.83544847     0.14500
C596        C  0.25030806  0.19495015  0.53325846     0.29800
C597        C  0.19014882  0.23909860  0.51522480     0.29800
C598        C  0.25562843  0.23373318  0.53670696    -0.06400
C599        C  0.23655042  0.19795870  0.49329702    -0.07200
C600        C  0.21287478  0.18513044  0.55046311    -0.07000
C601        C  0.22498473  0.25526011  0.52816320    -0.06400
C602        C  0.20514904  0.22104802  0.48477255    -0.07200
C603        C  0.18320007  0.20824331  0.54228660    -0.07000
C604        C  0.23507956  0.28860351  0.53098601    -0.32400
N605        N  0.27140337  0.28894782  0.54160581     0.17800
C606        C  0.28473519  0.25561161  0.54259251    -0.32400
H607        H  0.31344490  0.24736867  0.54908389     0.16000
C608        C  0.19418214  0.21773090  0.95071313    -0.31400
N609        N  0.21696400  0.19473498  0.93740597     0.12800
C610        C  0.24322341  0.18206092  0.96289406    -0.31400
C611        C  0.15078732  0.19048570  0.54899866    -0.31700
N612        N  0.15889733  0.15773401  0.56340638     0.13300
H613        H  0.12378467  0.19945121  0.53873703     0.15900
C614        C  0.19634754  0.15327320  0.55929682    -0.31700
H615        H  0.21089166  0.12837971  0.56235875     0.15900
H616        H  0.26460462  0.16266778  0.95992539     0.15900
H617        H  0.21685229  0.31110093  0.52550810     0.16000
H618        H  0.17046457  0.23128019  0.93683899     0.15900
C619        C  0.23474912  0.19648832  0.80463129     0.29800
C620        C  0.17099241  0.15867136  0.81979849     0.29800
C621        C  0.23604059  0.15865094  0.79818707    -0.06400
C622        C  0.22309667  0.19169837  0.84429953    -0.07200
C623        C  0.19799893  0.21133256  0.78652573    -0.07000
C624        C  0.20514852  0.13965393  0.80723613    -0.06400
C625        C  0.19000456  0.17265175  0.85201176    -0.07200
C626        C  0.16652512  0.19250512  0.79381397    -0.07000
C627        C  0.21481425  0.10528514  0.80590466    -0.32400
N628        N  0.24991488  0.10291208  0.79390151     0.14100
C629        C  0.26309877  0.13556199  0.78993432    -0.32400
H630        H  0.29064394  0.14254078  0.78270549     0.16000
C631        C  0.18537281  0.17108502  0.88791539    -0.31400
N632        N  0.21416512  0.18718071  0.90239471     0.12800
C633        C  0.23672486  0.19994580  0.87615205    -0.31400
C634        C  0.13624940  0.21371193  0.78029089    -0.31700
N635        N  0.14818585  0.24328717  0.76148439     0.13300
H636        H  0.10747502  0.20835680  0.78581656     0.15900
C637        C  0.18528801  0.24355727  0.77023659    -0.31700
H638        H  0.20162268  0.26641802  0.76811173     0.15900
H639        H  0.26085473  0.21477087  0.88038189     0.15900
H640        H  0.19721965  0.08378533  0.81338088     0.16000
H641        H  0.16265119  0.15904359  0.90235516     0.15900
N642        N  0.39024690  0.51907012  0.95068231    -0.06300
N643        N  0.38277804  0.04073708  0.97333844    -0.58400
N644        N  0.39055419  0.47955439  0.87512734    -0.06000
N645        N  0.89739504  0.49908792  0.84599275    -0.60500
N646        N  0.36254384  0.49318058  0.89028476    -0.05600
N647        N  0.35626755  0.02496450  0.87589272    -0.58400
N648        N  0.42115643  0.52129980  0.93293123    -0.05300
N649        N  0.94081393  0.54674321  0.94147828    -0.60900
C650        C  0.91406327  0.05888592  0.96835221     0.95900
C651        C  0.87942288  0.02937408  0.84864640     0.95700
N652        N  0.47362246  0.40616118  0.90421433    -0.06500
N653        N  0.47050102  0.37882480  0.88837613    -0.59000
N654        N  0.49653056  0.47827027  0.93200776    -0.04600
N655        N  0.02590734  0.48987967  0.91461260    -0.60300
N656        N  0.50713672  0.45282919  0.95631015    -0.06500
N657        N  0.54389155  0.45014089  0.95754098    -0.59300
N658        N  0.46219489  0.43401367  0.88330701    -0.04200
N659        N  0.95280530  0.42599503  0.85268897    -0.60300
Mn660      Mn  0.44241266  0.47876143  0.90554833     1.18400
C661        C  0.45815179  0.39146207  0.85616890     0.98000
C662        C  0.55548026  0.47126898  0.92968376     0.98600
N663        N  0.32534842  0.42831353  0.94434703    -0.06500
N664        N  0.30584892  0.92082613  0.91426471    -0.62800
N665        N  0.36203502  0.43789550  0.02138741    -0.05300
N666        N  0.34738549  0.43387770  0.05244057    -0.63500
N667        N  0.34578342  0.46388107  0.00149949    -0.06000
N668        N  0.31556806  0.97432750  0.01779741    -0.63100
N669        N  0.33967236  0.39843147  0.96008373    -0.04900
N670        N  0.33063720  0.37350439  0.94193745    -0.63800
Mn671      Mn  0.35244515  0.97423826  0.94630474     1.10700
C672        C  0.31130992  0.88707854  0.91181654     0.99200
C673        C  0.31841862  0.95715246  0.05055141     0.99300
N674        N  0.47273418  0.40306460  0.01662862    -0.06100
N675        N  0.49740314  0.41337428  0.03851300    -0.61400
N676        N  0.41396665  0.35373719  0.97811058    -0.05400
N677        N  0.39776616  0.32550873  0.97138468    -0.58200
N678        N  0.44719185  0.35566252  0.96503962    -0.06700
N679        N  0.45406726  0.32887823  0.94876784    -0.61000
N680        N  0.43892701  0.40506128  0.02866088    -0.05700
N681        N  0.43997524  0.42047042  0.05646939    -0.58200
Mn682      Mn  0.47646321  0.40421210  0.96062003     1.20200
Mn683      Mn  0.38799944  0.39745184  0.99807685     1.10100
Cl684      Cl  0.41536918  0.43905596  0.95282639    -0.86100
C685        C  0.47672755  0.42265403  0.06471289     0.96200
C686        C  0.42301746  0.30996194  0.95293161     0.96000
C687        C  0.35099537  0.26734648  0.81216220    -0.05400
C688        C  0.35964949  0.30257213  0.80736713    -0.05400
C689        C  0.37661928  0.31728157  0.83392714    -0.23500
C690        C  0.38575235  0.29708854  0.86560933     0.18700
C691        C  0.38071747  0.26112479  0.86980122     0.15900
C692        C  0.36445061  0.24634257  0.84261171    -0.18600
C693        C  0.39058853  0.24094616  0.90161798    -0.20400
C694        C  0.40494165  0.25654926  0.92908377    -0.12900
C695        C  0.40964588  0.29227808  0.92473192     0.03700
C696        C  0.39969506  0.31239089  0.89322241    -0.25100
H697        H  0.35316545  0.31930508  0.78348369     0.08800
H698        H  0.38198134  0.34464049  0.82985119     0.12400
H699        H  0.35965641  0.21884697  0.84614087     0.12300
H700        H  0.38667319  0.21332566  0.90538873     0.12100
H701        H  0.41207787  0.24091724  0.95364025     0.12600
H702        H  0.40296569  0.34008993  0.89029902     0.14600
C703        C  0.10455222  0.33627333  0.45853463    -0.05400
C704        C  0.07052750  0.33594921  0.44016154    -0.05400
C705        C  0.06032530  0.36348941  0.41450193    -0.23500
C706        C  0.08194193  0.39309181  0.40993620     0.18700
C707        C  0.11771215  0.39200841  0.42588029     0.15900
C708        C  0.13014454  0.36206824  0.44729900    -0.18600
C709        C  0.13734048  0.42263818  0.42538136    -0.20400
C710        C  0.11788819  0.45439166  0.41712849    -0.12900
C711        C  0.08013018  0.45504171  0.40681698     0.03700
C712        C  0.06591448  0.42516383  0.39560081    -0.25100
H713        H  0.05142292  0.31517866  0.44612966     0.08800
H714        H  0.03380233  0.36307458  0.40122392     0.12400
H715        H  0.15753169  0.36150727  0.45981669     0.12300
H716        H  0.16513241  0.42219281  0.43700603     0.12100
H717        H  0.63189302  0.47678458  0.92695977     0.12600
H718        H  0.03753876  0.42618742  0.38549027     0.14600
C719        C  0.31014218  0.98398166  0.78998315    -0.05400
C720        C  0.34782507  0.97231716  0.79328001    -0.05400
C721        C  0.35788205  0.94065644  0.81341388    -0.23500
C722        C  0.33036542  0.91978133  0.82960768     0.18700
C723        C  0.29241869  0.92901124  0.82234574     0.15900
C724        C  0.28266465  0.96138471  0.80402893    -0.18600
C725        C  0.26481508  0.90683017  0.83616425    -0.20400
C726        C  0.27455466  0.87964076  0.86226696    -0.12900
C727        C  0.31079288  0.87758960  0.87684909     0.03700
C728        C  0.33954913  0.89242893  0.85614040    -0.25100
H729        H  0.36991994  0.98805391  0.78213557     0.08800
H730        H  0.38718376  0.93337124  0.81770729     0.12400
H731        H  0.25339100  0.96941493  0.80134796     0.12300
H732        H  0.23557273  0.91244755  0.82935231     0.12100
H733        H  0.25225025  0.86640973  0.87640188     0.12600
H734        H  0.36279248  0.38848319  0.86954374     0.14600
C735        C  0.48579923  0.41383208  0.59936038    -0.05400
C736        C  0.46536029  0.43112515  0.62257754    -0.05400
C737        C  0.43090151  0.41771505  0.63364743    -0.23500
C738        C  0.41965541  0.38693909  0.62210900     0.18700
C739        C  0.44724003  0.36563164  0.60911567     0.15900
C740        C  0.48373727  0.37771151  0.60530320    -0.18600
C741        C  0.43633457  0.33871182  0.59156219    -0.20400
C742        C  0.39870542  0.33517903  0.58367753    -0.12900
C743        C  0.37063340  0.35620405  0.59598443     0.03700
C744        C  0.38162268  0.38074757  0.61719329    -0.25100
H745        H  0.47058526  0.45791678  0.62452471     0.08800
H746        H  0.41131278  0.43384121  0.64546846     0.12400
H747        H  0.50428065  0.35865827  0.09422686     0.12300
H748        H  0.45694181  0.32257811  0.58093040     0.12100
H749        H  0.39127881  0.31442613  0.56940683     0.12600
H750        H  0.36098427  0.39601156  0.62860116     0.14600
C751        C  0.03332031  0.10592013  0.82647806    -0.05400
C752        C  0.02423077  0.10507921  0.86151780    -0.05400
C753        C  0.98819888  0.09565360  0.87290026    -0.23500
C754        C  0.96042075  0.08726424  0.84942999     0.18700
C755        C  0.96882064  0.08970259  0.81413992     0.15900
C756        C  0.00485852  0.09815490  0.80321518    -0.18600
C757        C  0.94151513  0.08206225  0.79030654    -0.20400
C758        C  0.40799366  0.06784440  0.80177829    -0.12900
C759        C  0.90054290  0.06114663  0.83719090     0.03700
C760        C  0.92545614  0.07415478  0.86050754    -0.25100
H761        H  0.04503807  0.11072047  0.88025078     0.08800
H762        H  0.98239512  0.09405327  0.90019930     0.12400
H763        H  0.01106034  0.09820198  0.77612830     0.12300
H764        H  0.44721715  0.08474767  0.76286685     0.12100
H765        H  0.38973219  0.05841926  0.78326636     0.12600
H766        H  0.91900135  0.07131893  0.88738641     0.14600
C767        C  0.35127599  0.09796407  0.55254026    -0.05400
C768        C  0.33309315  0.08687190  0.52386638    -0.05400
C769        C  0.31178838  0.05766825  0.53014609    -0.23500
C770        C  0.31865267  0.03513891  0.56082469     0.18700
C771        C  0.35097374  0.03891672  0.58121642     0.15900
C772        C  0.36794412  0.07123200  0.57690116    -0.18600
C773        C  0.36368169  0.01060313  0.60533571    -0.20400
C774        C  0.34704181  0.97850123  0.60437872    -0.12900
C775        C  0.31604109  0.97661393  0.58173898     0.03700
C776        C  0.29611215  0.00729326  0.57024590    -0.25100
H777        H  0.32712316  0.10438353  0.50030242     0.08800
H778        H  0.29050322  0.05272105  0.51146768     0.12400
H779        H  0.38796172  0.07714874  0.59625550     0.12300
H780        H  0.38834515  0.01225822  0.62150293     0.12100
H781        H  0.36136681  0.95519878  0.61678156     0.12600
H782        H  0.27021840  0.00603399  0.55551199     0.14600
C783        C  0.04525269  0.33473981  0.73673047    -0.05400
C784        C  0.03802243  0.37038112  0.72657362    -0.05400
C785        C  0.01236569  0.38825046  0.74436482    -0.23500
C786        C  0.99440576  0.37082120  0.77281401     0.18700
C787        C  0.99877833  0.33450419  0.78063546     0.15900
C788        C  0.02246058  0.31662310  0.76122664    -0.18600
C789        C  0.98316181  0.31703781  0.81024916    -0.20400
C790        C  0.96765081  0.33585629  0.83423180    -0.12900
C791        C  0.96457352  0.37201945  0.82748389     0.03700
C792        C  0.97548018  0.38929106  0.79558493    -0.25100
H793        H  0.05213529  0.38481643  0.70534871     0.08800
H794        H  0.00852564  0.41595272  0.73736579     0.12400
H795        H  0.02602654  0.28879933  0.76760662     0.12300
H796        H  0.98661937  0.28923673  0.81669705     0.12100
H797        H  0.46084584  0.32232436  0.85911460     0.12600
H798        H  0.97375673  0.41727399  0.79054365     0.14600
C799        C  0.93261711  0.07576127  0.49399395    -0.05400
C800        C  0.94229709  0.10873745  0.98796751    -0.05400
C801        C  0.97457489  0.12067635  0.50372003    -0.23500
C802        C  0.99397422  0.09734816  0.52891458     0.18700
C803        C  0.98089191  0.06375290  0.53845394     0.15900
C804        C  0.94933803  0.05354740  0.52163284    -0.18600
C805        C  0.00090007  0.04027964  0.56301049    -0.20400
C806        C  0.03362335  0.05013786  0.57836969    -0.12900
C807        C  0.04674272  0.08366412  0.56917729     0.03700
C808        C  0.02679785  0.10683398  0.54400798    -0.25100
H809        H  0.92926227  0.12578232  0.96646332     0.08800
H810        H  0.98180424  0.14608560  0.99853777     0.12400
H811        H  0.44058224  0.02707600  0.52704369     0.12300
H812        H  0.99119452  0.01435517  0.57038628     0.12100
H813        H  0.04736170  0.03170691  0.59810382     0.12600
H814        H  0.03628287  0.13294057  0.53714207     0.14600
C815        C  0.07965285  0.60026184  0.08786451     0.86300
C816        C  0.10231603  0.57559742  0.11567267    -0.53900
C817        C  0.12830785  0.59134137  0.13345015     0.09200
C818        C  0.12742260  0.63209691  0.12112775     0.20200
C819        C  0.06171059  0.62854771  0.10641401    -0.54700
C820        C  0.08589269  0.64636081  0.12310393     0.09300
C821        C  0.10979461  0.61842800  0.06440002    -0.54200
C822        C  0.13512556  0.63550807  0.08144099     0.09900
H823        H  0.09990474  0.54784071  0.11940866     0.14400
H824        H  0.14654755  0.64660883  0.13587659     0.00200
H825        H  0.03216993  0.63567033  0.10396436     0.14700
H826        H  0.11023917  0.61882928  0.03653340     0.14500
C827        C  0.07468804  0.68055137  0.13713907     0.29800
C828        C  0.07335753  0.74169516  0.16438873     0.29800
C829        C  0.08611089  0.71231640  0.11288951    -0.06400
C830        C  0.03453171  0.69284110  0.14838508    -0.07200
C831        C  0.09782616  0.68131228  0.16975323    -0.07000
C832        C  0.08503498  0.74359494  0.12631172    -0.06400
C833        C  0.03376166  0.72443997  0.16280194    -0.07200
C834        C  0.09534774  0.71162739  0.18423691    -0.07000
C835        C  0.07599245  0.76834011  0.09784616    -0.32400
N836        N  0.07692008  0.75469938  0.06771669     0.14100
C837        C  0.07901739  0.72014888  0.07766412    -0.32400
H838        H  0.07292832  0.70143670  0.06053922     0.16000
C839        C  0.49669326  0.72964188  0.17285990    -0.31400
N840        N  0.47504581  0.70341653  0.16452605     0.12800
C841        C  0.49791678  0.68115350  0.14968428    -0.31400
C842        C  0.09242244  0.70177034  0.21923130    -0.31700
N843        N  0.09814845  0.66766198  0.22669172     0.13300
H844        H  0.07947397  0.71760660  0.23643257     0.15900
C845        C  0.10000835  0.65496783  0.19669849    -0.31700
H846        H  0.09371618  0.62921031  0.19373337     0.15900
H847        H  0.48864084  0.65774816  0.14085456     0.15900
H848        H  0.06679000  0.79472600  0.09897704     0.16000
H849        H  0.48619674  0.75113318  0.18489922     0.15900
C850        C  0.07822999  0.81683730  0.22078679     0.86300
C851        C  0.10923782  0.83720220  0.20132718    -0.53900
C852        C  0.13597980  0.81780148  0.18864643     0.09200
C853        C  0.12789139  0.77781114  0.19675916     0.20200
C854        C  0.06135050  0.79421119  0.19565187    -0.54700
C855        C  0.08607115  0.77302826  0.18270021     0.09300
C856        C  0.09970348  0.79146082  0.24946285    -0.54200
C857        C  0.12644549  0.77072847  0.23780155     0.09900
H858        H  0.11135254  0.86465533  0.19923384     0.14400
H859        H  0.14846311  0.76097106  0.18574568     0.00200
H860        H  0.03155724  0.79365966  0.19028363     0.14700
H861        H  0.09424614  0.79024873  0.27686080     0.14500
C862        C  0.21839758  0.54678107  0.20118218     0.29800
C863        C  0.15904575  0.57049837  0.15801748     0.29800
C864        C  0.22727069  0.57123424  0.16946743    -0.06400
C865        C  0.19942513  0.51798535  0.18462255    -0.07200
C866        C  0.18554789  0.56377412  0.21767305    -0.07000
C867        C  0.19778798  0.58623736  0.14984555    -0.06400
C868        C  0.16876621  0.52908829  0.16158013    -0.07200
C869        C  0.15482585  0.57468897  0.19633921    -0.07000
C870        C  0.21358263  0.61313611  0.12875720    -0.32400
N871        N  0.25125054  0.60939766  0.12946961     0.14100
C872        C  0.25960359  0.58232827  0.15416609    -0.32400
H873        H  0.28653478  0.56972434  0.15958679     0.16000
C874        C  0.16026370  0.99748401  0.14817992    -0.31400
N875        N  0.18400227  0.97033815  0.16273771     0.12800
C876        C  0.20840547  0.98343058  0.18405870    -0.31400
C877        C  0.12494007  0.57432393  0.21849052    -0.31700
N878        N  0.13722919  0.56931314  0.25211142     0.13300
H879        H  0.09569895  0.57616730  0.21081227     0.15900
C880        C  0.17388664  0.56023978  0.25137774    -0.31700
H881        H  0.19066454  0.54958811  0.27380695     0.15900
H882        H  0.23092323  0.96828444  0.19809949     0.15900
H883        H  0.19954019  0.63619562  0.11802554     0.16000
H884        H  0.13810727  0.99482167  0.12956819     0.15900
C885        C  0.33156858  0.62491889  0.06706421     0.86300
C886        C  0.35080710  0.64446045  0.09366742    -0.53900
C887        C  0.32681774  0.66396349  0.11018621     0.09200
C888        C  0.28492170  0.66331063  0.09582332     0.20200
C889        C  0.30038367  0.60539296  0.08815776    -0.54700
C890        C  0.27661971  0.62502271  0.10372539     0.09300
C891        C  0.31038749  0.65254795  0.04061907    -0.54200
C892        C  0.28442928  0.67174830  0.05457991     0.09900
H893        H  0.37973404  0.63933735  0.10203462     0.14400
H894        H  0.26406994  0.67880909  0.10811533     0.00200
H895        H  0.29812975  0.57788791  0.09352984     0.14700
H896        H  0.31355333  0.65538742  0.01284485     0.14500
C897        C  0.07356287  0.61385924  0.31065759     0.86300
C898        C  0.06737809  0.64155070  0.27862444    -0.53900
C899        C  0.09827227  0.64761972  0.25997912     0.09200
C900        C  0.13299372  0.62782862  0.27505625     0.20200
C901        C  0.09189626  0.58238364  0.29619139    -0.54700
C902        C  0.12281298  0.59000433  0.27721898     0.09300
C903        C  0.10580251  0.62897818  0.33189685    -0.54200
C904        C  0.13725950  0.63704462  0.31258446     0.09900
H905        H  0.04045581  0.65370100  0.27012078     0.14400
H906        H  0.15705836  0.63406443  0.25807398     0.00200
H907        H  0.07908577  0.55742546  0.29760344     0.14700
H908        H  0.10287260  0.63522325  0.35792528     0.14500
C909        C  0.33811381  0.69549253  0.21115620     0.29800
C910        C  0.33625578  0.67385433  0.14660159     0.29800
C911        C  0.31368273  0.71532623  0.18326248    -0.06400
C912        C  0.37693739  0.69788195  0.19150891    -0.07200
C913        C  0.32888186  0.65748766  0.21004791    -0.07000
C914        C  0.30950149  0.70300306  0.15211145    -0.06400
C915        C  0.37543890  0.68666591  0.15823687    -0.07200
C916        C  0.32794140  0.64657765  0.17737725    -0.07000
C917        C  0.29898549  0.73061088  0.12839510    -0.32400
N918        N  0.30012205  0.75925183  0.14305848     0.14100
C919        C  0.31278208  0.75028472  0.17541371    -0.32400
H920        H  0.32715466  0.76737667  0.19035351     0.16000
C921        C  0.41152029  0.68830991  0.14541420    -0.31400
N922        N  0.43529981  0.70033026  0.16856865     0.12800
C923        C  0.41454899  0.70647214  0.19657314    -0.31400
C924        C  0.33295129  0.61117689  0.18284239    -0.31700
N925        N  0.33397702  0.59952572  0.21727254     0.13300
H926        H  0.33788523  0.59511921  0.16292522     0.15900
C927        C  0.33566417  0.62796100  0.23342656    -0.31700
H928        H  0.34232088  0.62692957  0.26070749     0.15900
H929        H  0.42608339  0.71528604  0.21952076     0.15900
H930        H  0.29889258  0.73029365  0.10131521     0.16000
H931        H  0.41999691  0.68089336  0.12099743     0.15900
C932        C  0.33445519  0.84181530  0.09772092     0.86300
C933        C  0.30101794  0.86383865  0.10940217    -0.53900
C934        C  0.26827986  0.84654602  0.11187158     0.09200
C935        C  0.27242536  0.80946953  0.10093069     0.20200
C936        C  0.33518371  0.80891617  0.12358628    -0.54700
C937        C  0.30325010  0.79220679  0.12422672     0.09300
C938        C  0.32151180  0.82965710  0.06264699    -0.54200
C939        C  0.28871631  0.81199095  0.06491199     0.09900
H940        H  0.30344924  0.88862379  0.11847099     0.14400
H941        H  0.24748658  0.79323542  0.10339686     0.00200
H942        H  0.35959504  0.79843262  0.13910387     0.14700
H943        H  0.33860482  0.83151679  0.03987810     0.14500
C944        C  0.29659631  0.51862490  0.26992774     0.86300
C945        C  0.26613727  0.51404486  0.24301098    -0.53900
C946        C  0.25162343  0.54385797  0.22591716     0.09200
C947        C  0.26982377  0.57660212  0.23655014     0.20200
C948        C  0.32616715  0.54045591  0.24884525    -0.54700
C949        C  0.31185689  0.57118586  0.23196613     0.09300
C950        C  0.27890333  0.54372487  0.29346360    -0.54200
C951        C  0.26547437  0.57450876  0.27560100     0.09900
H952        H  0.25585156  0.48914609  0.23940554     0.14400
H953        H  0.25832112  0.60144769  0.22242370     0.00200
H954        H  0.35518036  0.53293196  0.24703930     0.14700
H955        H  0.27811290  0.53792043  0.32146130     0.14500
C956        C  0.17077554  0.83437491  0.17022225     0.29800
C957        C  0.23459998  0.85289792  0.13458513     0.29800
C958        C  0.17136863  0.82825808  0.13308695    -0.06400
C959        C  0.18030272  0.87548060  0.16553139    -0.07200
C960        C  0.20771571  0.81615974  0.18464057    -0.07000
C961        C  0.20196140  0.83940825  0.11492182    -0.06400
C962        C  0.21342822  0.88416864  0.14682414    -0.07200
C963        C  0.23959881  0.82840554  0.16937857    -0.07000
C964        C  0.19342686  0.83924188  0.08040876    -0.32400
N965        N  0.16016432  0.82447148  0.07784145     0.14100
C966        C  0.14603323  0.81876670  0.10996978    -0.32400
H967        H  0.11890345  0.81038094  0.11652190     0.16000
C968        C  0.21610137  0.92004416  0.14216173    -0.31400
N969        N  0.18613110  0.93488688  0.15627605     0.12800
C970        C  0.16469550  0.90820342  0.17094957    -0.31400
C971        C  0.26924252  0.81244762  0.18981369    -0.31700
N972        N  0.25669476  0.78543034  0.21224369     0.13300
H973        H  0.29813479  0.81941351  0.18734508     0.15900
C974        C  0.21914064  0.78643565  0.20645093    -0.31700
H975        H  0.20204188  0.76494447  0.21286651     0.15900
H976        H  0.13979619  0.91255252  0.18499556     0.15900
H977        H  0.21058228  0.84891330  0.05904905     0.16000
H978        H  0.23861724  0.93432316  0.12956101     0.15900
C979        C  0.11796638  0.81207280  0.99048299     0.86300
C980        C  0.08656142  0.79067596  0.00998786    -0.53900
C981        C  0.09963703  0.77040805  0.03987523     0.09200
C982        C  0.14162797  0.77308965  0.04643319     0.20200
C983        C  0.13419096  0.83194901  0.01875161    -0.54700
C984        C  0.14626240  0.81139874  0.04773785     0.09300
C985        C  0.14849293  0.78565587  0.98394604    -0.54200
C986        C  0.16074902  0.76489051  0.01289796     0.09900
H987        H  0.05707330  0.79363928  0.00296317     0.14400
H988        H  0.15208869  0.75724417  0.07078362     0.00200
H989        H  0.13482810  0.85991091  0.01667012     0.14700
H990        H  0.16052066  0.78476681  0.95880245     0.14500
C991        C  0.32610449  0.75093357  0.28673696     0.86300
C992        C  0.34594803  0.72590260  0.26532162    -0.53900
C993        C  0.32305561  0.71082107  0.24404596     0.09200
C994        C  0.27974427  0.72255921  0.24814235     0.20200
C995        C  0.30365180  0.77720221  0.26000210    -0.54700
C996        C  0.27883174  0.76316784  0.23961821     0.09300
C997        C  0.29564648  0.73046888  0.30712340    -0.54200
C998        C  0.27054603  0.71559220  0.28799977     0.09900
H999        H  0.37614866  0.72323030  0.26457545     0.14400
H1000       H  0.25978932  0.71047727  0.23165545     0.00200
H1001       H  0.30556145  0.80496262  0.25752201     0.14700
H1002       H  0.29369842  0.72938252  0.33470691     0.14500
C1003       C  0.25354279  0.69490305  0.03262343     0.29800
C1004       C  0.19374327  0.73946005  0.01465178     0.29800
C1005       C  0.25938073  0.73368000  0.03572483    -0.06400
C1006       C  0.23950335  0.69764874  0.99282682    -0.07200
C1007       C  0.21617252  0.68552807  0.05011651    -0.07000
C1008       C  0.22895328  0.75547287  0.02715565    -0.06400
C1009       C  0.20823649  0.72088217  0.98427797    -0.07200
C1010       C  0.18674498  0.70893125  0.04205372    -0.07000
C1011       C  0.23942516  0.78865289  0.03031071    -0.32400
N1012       N  0.27573285  0.78860435  0.04125583     0.17800
C1013       C  0.28867669  0.75514674  0.04220023    -0.32400
H1014       H  0.31711055  0.74647538  0.04935485     0.16000
C1015       C  0.19636497  0.71689452  0.45056808    -0.31400
N1016       N  0.21895973  0.69388562  0.43702768     0.12800
C1017       C  0.24552157  0.68128426  0.46227081    -0.31400
C1018       C  0.15415244  0.69156268  0.04897992    -0.31700
N1019       N  0.16190871  0.65875678  0.06326508     0.13300
H1020       H  0.12720786  0.70077607  0.03880841     0.15900
C1021       C  0.19923356  0.65385941  0.05886517    -0.31700
H1022       H  0.21335918  0.62880149  0.06137834     0.15900
H1023       H  0.26690697  0.66196251  0.45908930     0.15900
H1024       H  0.22132546  0.81126237  0.02515328     0.16000
H1025       H  0.17254723  0.73049550  0.43690900     0.15900
C1026       C  0.23565363  0.69650369  0.30389864     0.29800
C1027       C  0.17186390  0.65904858  0.31917124     0.29800
C1028       C  0.23649506  0.65893043  0.29672253    -0.06400
C1029       C  0.22451129  0.69122402  0.34375013    -0.07200
C1030       C  0.19882375  0.71198488  0.28631769    -0.07000
C1031       C  0.20576302  0.63995928  0.30610257    -0.06400
C1032       C  0.19131410  0.67239536  0.35150911    -0.07200
C1033       C  0.16728200  0.69332239  0.29366513    -0.07000
C1034       C  0.21527766  0.60562584  0.30413490    -0.32400
N1035       N  0.24993366  0.60345816  0.29103498     0.14100
C1036       C  0.26304045  0.63612145  0.28700695    -0.32400
H1037       H  0.29015747  0.64332689  0.27858729     0.16000
C1038       C  0.18687985  0.67065181  0.38747439    -0.31400
N1039       N  0.21591409  0.68643911  0.40196631     0.12800
C1040       C  0.23845103  0.69912350  0.37566021    -0.31400
C1041       C  0.13701688  0.71473584  0.28021388    -0.31700
N1042       N  0.14902435  0.74443616  0.26158234     0.13300
H1043       H  0.10821026  0.70931308  0.28553241     0.15900
C1044       C  0.18625254  0.74434850  0.27009275    -0.31700
H1045       H  0.20286239  0.76704057  0.26769508     0.15900
H1046       H  0.26273311  0.71375117  0.37988166     0.15900
H1047       H  0.19787410  0.58404056  0.31190116     0.16000
H1048       H  0.16407109  0.65878320  0.40192430     0.15900
N1049       N  0.38668831  0.01768598  0.45261285    -0.06300
N1050       N  0.38738344  0.54295411  0.47151759    -0.58400
N1051       N  0.38941705  0.97900930  0.37649461    -0.06000
N1052       N  0.89626493  0.99879070  0.34741844    -0.60500
N1053       N  0.36080658  0.99205377  0.39132784    -0.05600
N1054       N  0.35669408  0.52797606  0.37440806    -0.58400
N1055       N  0.41797070  0.02057047  0.43551845    -0.05300
N1056       N  0.93668782  0.04630121  0.44461063    -0.60900
C1057       C  0.91884180  0.56047855  0.46509781     0.95900
C1058       C  0.87887570  0.53131331  0.34641626     0.95700
N1059       N  0.47285746  0.90723612  0.40418365    -0.06500
N1060       N  0.47122505  0.88081366  0.38681162    -0.59000
N1061       N  0.49418218  0.97837886  0.43515116    -0.04600
N1062       N  0.02404443  0.99055209  0.41898842    -0.60300
N1063       N  0.50417599  0.95255583  0.45922506    -0.06500
N1064       N  0.54086027  0.95046235  0.46216470    -0.59300
N1065       N  0.46199050  0.93574057  0.38406004    -0.04200
N1066       N  0.95424449  0.92925138  0.35241094    -0.60300
Mn1067     Mn  0.44069699  0.97897877  0.40754996     1.18400
C1068       C  0.46022905  0.89489716  0.35457365     0.98000
C1069       C  0.55335783  0.97202321  0.43508104     0.98600
N1070       N  0.32400250  0.92598687  0.44422170    -0.06500
N1071       N  0.30338912  0.42406915  0.41556790    -0.62800
N1072       N  0.35981475  0.93429755  0.52189441    -0.05300
N1073       N  0.34698087  0.93077216  0.55366223    -0.63500
N1074       N  0.34398829  0.96101558  0.50272183    -0.06000
N1075       N  0.31415171  0.47555359  0.51493041    -0.63100
N1076       N  0.33877022  0.89601715  0.45934387    -0.04900
N1077       N  0.33105476  0.87163043  0.44005359    -0.63800
Mn1078     Mn  0.35310196  0.47766958  0.44479746     1.10700
C1079       C  0.30744163  0.38995204  0.41412360     0.99200
C1080       C  0.31688134  0.45890459  0.54788290     0.99300
N1081       N  0.47109724  0.90040784  0.51679548    -0.06100
N1082       N  0.49584794  0.91128744  0.53819270    -0.61400
N1083       N  0.41327338  0.85187346  0.47715093    -0.05400
N1084       N  0.39795414  0.82315666  0.47071491    -0.58200
N1085       N  0.44619560  0.85479530  0.46358340    -0.06700
N1086       N  0.45380391  0.82823516  0.44724657    -0.61000
N1087       N  0.43744095  0.90150446  0.52936424    -0.05700
N1088       N  0.43869226  0.91638278  0.55755156    -0.58200
Mn1089     Mn  0.47479438  0.90348184  0.46085759     1.20200
Mn1090     Mn  0.38655759  0.89463188  0.49800291     1.10100
Cl1091     Cl  0.41357586  0.93771894  0.45365214    -0.86100
C1092       C  0.47553604  0.92005654  0.56471542     0.96200
C1093       C  0.42345421  0.80841961  0.45186830     0.96000
C1094       C  0.35259755  0.76611573  0.31105711    -0.05400
C1095       C  0.36129595  0.80131667  0.30622225    -0.05400
C1096       C  0.37793068  0.81600940  0.33288973    -0.23500
C1097       C  0.38687725  0.79572999  0.36454732     0.18700
C1098       C  0.38189055  0.75975327  0.36867290     0.15900
C1099       C  0.36594239  0.74502197  0.34141071    -0.18600
C1100       C  0.39132510  0.73952241  0.40053443    -0.20400
C1101       C  0.40536470  0.75508407  0.42810511    -0.12900
C1102       C  0.41025327  0.79077302  0.42371494     0.03700
C1103       C  0.40056555  0.81096903  0.39221727    -0.25100
H1104       H  0.35500900  0.81806252  0.28230977     0.08800
H1105       H  0.38313078  0.84340558  0.32894045     0.12400
H1106       H  0.36108462  0.71753291  0.34486654     0.12300
H1107       H  0.38730231  0.71191670  0.40424904     0.12100
H1108       H  0.41218695  0.73946075  0.45273436     0.12600
H1109       H  0.40371343  0.83870746  0.38937597     0.14600
C1110       C  0.10881525  0.83684675  0.95770189    -0.05400
C1111       C  0.07503971  0.83682608  0.93890629    -0.05400
C1112       C  0.06454797  0.86537140  0.91451528    -0.23500
C1113       C  0.08530798  0.89549257  0.91227555     0.18700
C1114       C  0.12099542  0.89410222  0.92843254     0.15900
C1115       C  0.13417527  0.86317177  0.94759905    -0.18600
C1116       C  0.13934589  0.92488076  0.93121770    -0.20400
C1117       C  0.11868304  0.95617414  0.92597360    -0.12900
C1118       C  0.08122115  0.95665707  0.91475700     0.03700
C1119       C  0.06817131  0.92780101  0.90072500    -0.25100
H1120       H  0.05623070  0.81566949  0.94387243     0.08800
H1121       H  0.03812798  0.86532397  0.90096518     0.12400
H1122       H  0.16152680  0.86229910  0.96024088     0.12300
H1123       H  0.16690875  0.92421777  0.94335702     0.12100
H1124       H  0.62967930  0.97745124  0.43530267     0.12600
H1125       H  0.03979833  0.92875488  0.89056442     0.14600
C1126       C  0.30842774  0.48332520  0.28961267    -0.05400
C1127       C  0.34577241  0.47082642  0.29354422    -0.05400
C1128       C  0.35484487  0.43944843  0.31451221    -0.23500
C1129       C  0.32668410  0.41967392  0.33099421     0.18700
C1130       C  0.28899198  0.42948526  0.32308625     0.15900
C1131       C  0.28018382  0.46155419  0.30362902    -0.18600
C1132       C  0.26074381  0.40846168  0.33761412    -0.20400
C1133       C  0.26964921  0.38229478  0.36499618    -0.12900
C1134       C  0.30594160  0.37974761  0.37949244     0.03700
C1135       C  0.33509211  0.39308796  0.35843666    -0.25100
H1136       H  0.36839238  0.48572850  0.28223492     0.08800
H1137       H  0.38391882  0.43159964  0.31925337     0.12400
H1138       H  0.25111142  0.47014915  0.30027705     0.12300
H1139       H  0.23165862  0.41448933  0.33042600     0.12100
H1140       H  0.24695577  0.37032749  0.37963459     0.12600
H1141       H  0.36403462  0.88933400  0.36742779     0.14600
C1142       C  0.48517047  0.91485801  0.10133336    -0.05400
C1143       C  0.46434902  0.93282780  0.12371463    -0.05400
C1144       C  0.43108238  0.91830898  0.13653850    -0.23500
C1145       C  0.42125331  0.88635279  0.12674348     0.18700
C1146       C  0.44979140  0.86520423  0.11488872     0.15900
C1147       C  0.48548001  0.87879489  0.10992073    -0.18600
C1148       C  0.44017379  0.83717881  0.09837550    -0.20400
C1149       C  0.40295580  0.83299244  0.08936087    -0.12900
C1150       C  0.37403919  0.85425989  0.09994581     0.03700
C1151       C  0.38364120  0.87934059  0.12104727    -0.25100
H1152       H  0.46812656  0.96017534  0.12381252     0.08800
H1153       H  0.41097398  0.93429964  0.14788671     0.12400
H1154       H  0.50757958  0.85812255  0.59555552     0.12300
H1155       H  0.46153268  0.82102371  0.08879678     0.12100
H1156       H  0.39643037  0.81180351  0.07535122     0.12600
H1157       H  0.36234333  0.89479119  0.13132235     0.14600
C1158       C  0.03491562  0.60483361  0.32543245    -0.05400
C1159       C  0.02431633  0.60673463  0.35967953    -0.05400
C1160       C  0.98774578  0.59831687  0.37031192    -0.23500
C1161       C  0.96098531  0.58818212  0.34684040     0.18700
C1162       C  0.97112319  0.58765503  0.31226035     0.15900
C1163       C  0.00761247  0.59510665  0.30218308    -0.18600
C1164       C  0.94495355  0.57852060  0.28824618    -0.20400
C1165       C  0.41062454  0.56593949  0.29917277    -0.12900
C1166       C  0.90130196  0.56201689  0.33418093     0.03700
C1167       C  0.92525466  0.57641946  0.35733610    -0.25100
H1168       H  0.04415161  0.61427605  0.37829500     0.08800
H1169       H  0.98063011  0.59915881  0.39702224     0.12400
H1170       H  0.01496628  0.59341577  0.27563216     0.12300
H1171       H  0.45208623  0.57887690  0.26134218     0.12100
H1172       H  0.39327411  0.55522480  0.28086054     0.12600
H1173       H  0.91738620  0.57579831  0.38381145     0.14600
C1174       C  0.35646865  0.59935299  0.05128709    -0.05400
C1175       C  0.34025660  0.58938760  0.02118705    -0.05400
C1176       C  0.31800463  0.56070074  0.02553482    -0.23500
C1177       C  0.32238991  0.53768797  0.05622490     0.18700
C1178       C  0.35361165  0.54012709  0.07846906     0.15900
C1179       C  0.37179619  0.57181599  0.07550083    -0.18600
C1180       C  0.36307058  0.51176071  0.10379179    -0.20400
C1181       C  0.34438292  0.48069583  0.10265907    -0.12900
C1182       C  0.31466375  0.47998443  0.07831861     0.03700
C1183       C  0.29747054  0.51158186  0.06497122    -0.25100
H1184       H  0.33626689  0.60753895  0.99774880     0.08800
H1185       H  0.29759779  0.55677266  0.00567543     0.12400
H1186       H  0.39061586  0.57692732  0.09615707     0.12300
H1187       H  0.38659156  0.51252090  0.12155809     0.12100
H1188       H  0.35627941  0.45695030  0.11665032     0.12600
H1189       H  0.27218834  0.51162555  0.04906285     0.14600
C1190       C  0.04798733  0.83832029  0.23481960    -0.05400
C1191       C  0.04390931  0.87457571  0.22630072    -0.05400
C1192       C  0.01946884  0.89330198  0.24445175    -0.23500
C1193       C  0.99913332  0.87610641  0.27138380     0.18700
C1194       C  0.00008844  0.83957547  0.27726894     0.15900
C1195       C  0.02311968  0.82103907  0.25782361    -0.18600
C1196       C  0.98165142  0.82210567  0.30523501    -0.20400
C1197       C  0.96663973  0.84062702  0.32969295    -0.12900
C1198       C  0.96693630  0.87677861  0.32497212     0.03700
C1199       C  0.98093977  0.89462748  0.29458728    -0.25100
H1200       H  0.05951804  0.88901243  0.20618527     0.08800
H1201       H  0.01826991  0.92125395  0.23887301     0.12400
H1202       H  0.02454756  0.79304185  0.26313215     0.12300
H1203       H  0.98233144  0.79412211  0.31016583     0.12100
H1204       H  0.45744374  0.82665118  0.35344252     0.12600
H1205       H  0.98187409  0.92258316  0.29119638     0.14600
C1206       C  0.93788386  0.57859719  0.98947144    -0.05400
C1207       C  0.95444883  0.60882282  0.47858613    -0.05400
C1208       C  0.98484051  0.62033730  0.99537919    -0.23500
C1209       C  0.99967462  0.59891806  0.02451067     0.18700
C1210       C  0.98172414  0.56842664  0.03786055     0.15900
C1211       C  0.94992997  0.55899611  0.02074546    -0.18600
C1212       C  0.99719215  0.54695510  0.06673097    -0.20400
C1213       C  0.03058205  0.55550761  0.08200162    -0.12900
C1214       C  0.04906400  0.58544726  0.06821332     0.03700
C1215       C  0.03280658  0.60717463  0.03979482    -0.25100
H1216       H  0.94565532  0.62366952  0.45402609     0.08800
H1217       H  0.99898573  0.64236598  0.48590885     0.12400
H1218       H  0.43733831  0.53448073  0.02932708     0.12300
H1219       H  0.98346202  0.52368450  0.07749670     0.12100
H1220       H  0.04074032  0.53939443  0.10528614     0.12600
H1221       H  0.04535249  0.63144644  0.03023027     0.14600
C1222       C  0.07999638  0.59885104  0.58866401     0.86300
C1223       C  0.10267616  0.57440475  0.61666157    -0.53900
C1224       C  0.12872029  0.59034977  0.63424268     0.09200
C1225       C  0.12781401  0.63102560  0.62155253     0.20200
C1226       C  0.06209196  0.62735845  0.60696585    -0.54700
C1227       C  0.08629849  0.64531115  0.62348871     0.09300
C1228       C  0.11015867  0.61680080  0.56505608    -0.54200
C1229       C  0.13547543  0.63407771  0.58188495     0.09900
H1230       H  0.10016611  0.54665598  0.62068018     0.14400
H1231       H  0.14695903  0.64569147  0.63611486     0.00200
H1232       H  0.03254535  0.63445797  0.60452710     0.14700
H1233       H  0.11062641  0.61693060  0.53722506     0.14500
C1234       C  0.07514884  0.67955101  0.63747999     0.29800
C1235       C  0.07404492  0.74082882  0.66454135     0.29800
C1236       C  0.08653563  0.71123609  0.61313727    -0.06400
C1237       C  0.03505393  0.69194518  0.64879058    -0.07200
C1238       C  0.09843357  0.68040722  0.66999045    -0.07000
C1239       C  0.08555987  0.74257774  0.62647024    -0.06400
C1240       C  0.03440890  0.72360035  0.66311084    -0.07200
C1241       C  0.09611906  0.71081186  0.68435166    -0.07000
C1242       C  0.07636363  0.76724877  0.59802596    -0.32400
N1243       N  0.07715392  0.75350189  0.56797693     0.14100
C1244       C  0.07926551  0.71897139  0.57795535    -0.32400
H1245       H  0.07305332  0.70022912  0.56089634     0.16000
C1246       C  0.49729786  0.72901878  0.67291120    -0.31400
N1247       N  0.47551786  0.70289262  0.66455179     0.12800
C1248       C  0.49832966  0.68046646  0.64985024    -0.31400
C1249       C  0.09336196  0.70110159  0.71935350    -0.31700
N1250       N  0.09904902  0.66700860  0.72693846     0.13300
H1251       H  0.08038499  0.71700139  0.73647422     0.15900
C1252       C  0.10068557  0.65415355  0.69701792    -0.31700
H1253       H  0.09422441  0.62839186  0.69419435     0.15900
H1254       H  0.48894000  0.65712480  0.64096626     0.15900
H1255       H  0.06753769  0.79375008  0.59910026     0.16000
H1256       H  0.48686065  0.75062961  0.68479980     0.15900
C1257       C  0.07879340  0.81633015  0.72052336     0.86300
C1258       C  0.10990319  0.83659204  0.70108413    -0.53900
C1259       C  0.13673805  0.81712212  0.68861629     0.09200
C1260       C  0.12857589  0.77715407  0.69682012     0.20200
C1261       C  0.06200607  0.79359285  0.69545233    -0.54700
C1262       C  0.08677297  0.77230186  0.68268112     0.09300
C1263       C  0.10016050  0.79104584  0.74933308    -0.54200
C1264       C  0.12696061  0.77027643  0.73782754     0.09900
H1265       H  0.11200060  0.86404780  0.69882106     0.14400
H1266       H  0.14923858  0.76024668  0.68600097     0.00200
H1267       H  0.03223001  0.79304638  0.69001013     0.14700
H1268       H  0.09461745  0.78993899  0.77670502     0.14500
C1269       C  0.21894808  0.54642189  0.70221604     0.29800
C1270       C  0.15953963  0.56979678  0.65896103     0.29800
C1271       C  0.22777499  0.57080646  0.67041812    -0.06400
C1272       C  0.20005812  0.51749623  0.68580059    -0.07200
C1273       C  0.18603065  0.56342074  0.71863449    -0.07000
C1274       C  0.19825078  0.58562624  0.65071955    -0.06400
C1275       C  0.16937648  0.52842541  0.66274467    -0.07200
C1276       C  0.15527014  0.57416894  0.69725292    -0.07000
C1277       C  0.21401278  0.61229546  0.62928239    -0.32400
N1278       N  0.25168111  0.60852327  0.62991128     0.14100
C1279       C  0.26008581  0.58171331  0.65488716    -0.32400
H1280       H  0.28701870  0.56913690  0.66034520     0.16000
C1281       C  0.16094569  0.99674572  0.64825996    -0.31400
N1282       N  0.18478365  0.96964132  0.66274216     0.12800
C1283       C  0.20936545  0.98281627  0.68382054    -0.31400
C1284       C  0.12533821  0.57360551  0.71939194    -0.31700
N1285       N  0.13756535  0.56865570  0.75303589     0.13300
H1286       H  0.09610456  0.57534514  0.71167714     0.15900
C1287       C  0.17427371  0.55974763  0.75231936    -0.31700
H1288       H  0.19105071  0.54911530  0.77476016     0.15900
H1289       H  0.23198621  0.96768361  0.69768467     0.15900
H1290       H  0.19994785  0.63525140  0.61829448     0.16000
H1291       H  0.13863240  0.99402007  0.62982517     0.15900
C1292       C  0.33189648  0.62394556  0.56722630     0.86300
C1293       C  0.35119307  0.64344836  0.59383906    -0.53900
C1294       C  0.32723759  0.66295613  0.61040912     0.09200
C1295       C  0.28527585  0.66229470  0.59605716     0.20200
C1296       C  0.30072832  0.60437822  0.58841925    -0.54700
C1297       C  0.27700334  0.62403236  0.60403935     0.09300
C1298       C  0.31065339  0.65158802  0.54084709    -0.54200
C1299       C  0.28465514  0.67066644  0.55479623     0.09900
H1300       H  0.38014637  0.63832964  0.60213685     0.14400
H1301       H  0.26435680  0.67773099  0.60832917     0.00200
H1302       H  0.29846935  0.57686669  0.59384627     0.14700
H1303       H  0.31371571  0.65451134  0.51306382     0.14500
C1304       C  0.07385338  0.61388480  0.81105707     0.86300
C1305       C  0.06791830  0.64136650  0.77883880    -0.53900
C1306       C  0.09893754  0.64714687  0.76028961     0.09200
C1307       C  0.13353835  0.62732599  0.77562227     0.20200
C1308       C  0.09208731  0.58219943  0.79686242    -0.54700
C1309       C  0.12315894  0.58953903  0.77799574     0.09300
C1310       C  0.10613076  0.62906047  0.83225034    -0.54200
C1311       C  0.13772786  0.63684991  0.81302570     0.09900
H1312       H  0.04108512  0.65359938  0.77016137     0.14400
H1313       H  0.15769913  0.63334175  0.75870317     0.00200
H1314       H  0.07910565  0.55731477  0.79834825     0.14700
H1315       H  0.10309957  0.63560591  0.85815573     0.14500
C1316       C  0.33865907  0.69495247  0.71130200     0.29800
C1317       C  0.33679163  0.67300989  0.64679762     0.29800
C1318       C  0.31371930  0.71431026  0.68347911    -0.06400
C1319       C  0.37731309  0.69778067  0.69135737    -0.07200
C1320       C  0.33000067  0.65677842  0.71038085    -0.07000
C1321       C  0.30963368  0.70184178  0.65238001    -0.06400
C1322       C  0.37581029  0.68643650  0.65813280    -0.07200
C1323       C  0.32910150  0.64571261  0.67778502    -0.07000
C1324       C  0.29875098  0.72930573  0.62857837    -0.32400
N1325       N  0.29953029  0.75802808  0.64312832     0.14100
C1326       C  0.31231369  0.74924698  0.67546756    -0.32400
H1327       H  0.32688104  0.76645743  0.69012665     0.16000
C1328       C  0.41192419  0.68797956  0.64534141    -0.31400
N1329       N  0.43571873  0.70005713  0.66845665     0.12800
C1330       C  0.41495488  0.70629831  0.69642266    -0.31400
C1331       C  0.33395194  0.61029107  0.68341629    -0.31700
N1332       N  0.33487977  0.59880297  0.71790525     0.13300
H1333       H  0.33863301  0.59408892  0.66357614     0.15900
C1334       C  0.33661657  0.62734358  0.73392048    -0.31700
H1335       H  0.34287876  0.62643421  0.76125696     0.15900
H1336       H  0.42653356  0.71497730  0.71942247     0.15900
H1337       H  0.29893854  0.72896739  0.60154905     0.16000
H1338       H  0.42043754  0.68027845  0.62105409     0.15900
C1339       C  0.33509726  0.83981772  0.59725777     0.86300
C1340       C  0.30214358  0.86234883  0.60914382    -0.53900
C1341       C  0.26900408  0.84556101  0.61166238     0.09200
C1342       C  0.27251207  0.80840823  0.60077143     0.20200
C1343       C  0.33541017  0.80698983  0.62317938    -0.54700
C1344       C  0.30314636  0.79080616  0.62405685     0.09300
C1345       C  0.32164817  0.82789341  0.56228657    -0.54200
C1346       C  0.28864428  0.81068355  0.56469897     0.09900
H1347       H  0.30524458  0.88701958  0.61831764     0.14400
H1348       H  0.24739651  0.79241719  0.60333769     0.00200
H1349       H  0.35975642  0.79617543  0.63860448     0.14700
H1350       H  0.33860115  0.82945332  0.53943900     0.14500
C1351       C  0.29705308  0.51839261  0.77115021     0.86300
C1352       C  0.26649217  0.51375613  0.74433741    -0.53900
C1353       C  0.25219821  0.54353582  0.72694275     0.09200
C1354       C  0.27061573  0.57628327  0.73729590     0.20200
C1355       C  0.32676094  0.53988145  0.74986664    -0.54700
C1356       C  0.31262131  0.57059628  0.73273016     0.09300
C1357       C  0.27958107  0.54381283  0.79442057    -0.54200
C1358       C  0.26627651  0.57449526  0.77632592     0.09900
H1359       H  0.25592215  0.48886433  0.74109128     0.14400
H1360       H  0.25924237  0.60110258  0.72300673     0.00200
H1361       H  0.35573098  0.53215058  0.74816293     0.14700
H1362       H  0.27871802  0.53823708  0.82243065     0.14500
C1363       C  0.17161104  0.83365271  0.67022833     0.29800
C1364       C  0.23539519  0.85224029  0.63444090     0.29800
C1365       C  0.17211514  0.82758569  0.63308346    -0.06400
C1366       C  0.18117091  0.87476382  0.66558987    -0.07200
C1367       C  0.20858218  0.81544119  0.68454688    -0.07000
C1368       C  0.20253954  0.83892701  0.61479303    -0.06400
C1369       C  0.21427740  0.88347990  0.64682446    -0.07200
C1370       C  0.24043767  0.82770572  0.66924259    -0.07000
C1371       C  0.19398208  0.83826300  0.58032593    -0.32400
N1372       N  0.16099961  0.82289304  0.57801285     0.14100
C1373       C  0.14704513  0.81725088  0.61021505    -0.32400
H1374       H  0.12028829  0.80808765  0.61702799     0.16000
C1375       C  0.21691286  0.91935852  0.64217945    -0.31400
N1376       N  0.18694753  0.93417499  0.65633159     0.12800
C1377       C  0.16556824  0.90747568  0.67105702    -0.31400
C1378       C  0.27010680  0.81208365  0.68994576    -0.31700
N1379       N  0.25760048  0.78522563  0.71263258     0.13300
H1380       H  0.29899764  0.81905431  0.68740338     0.15900
C1381       C  0.22006970  0.78599022  0.70669694    -0.31700
H1382       H  0.20305515  0.76444336  0.71315753     0.15900
H1383       H  0.14071194  0.91181341  0.68516565     0.15900
H1384       H  0.21103831  0.84784254  0.55885667     0.16000
H1385       H  0.23938319  0.93366424  0.62953019     0.15900
C1386       C  0.11798104  0.81080726  0.49081730     0.86300
C1387       C  0.08665663  0.78950183  0.51044365    -0.53900
C1388       C  0.09983794  0.76911700  0.54014417     0.09200
C1389       C  0.14188155  0.77162284  0.54655793     0.20200
C1390       C  0.13459707  0.83053969  0.51903962    -0.54700
C1391       C  0.14681324  0.80989404  0.54793162     0.09300
C1392       C  0.14834504  0.78429420  0.48401719    -0.54200
C1393       C  0.16072419  0.76342137  0.51290303     0.09900
H1394       H  0.05711537  0.79259181  0.50368108     0.14400
H1395       H  0.15238327  0.75568183  0.57083920     0.00200
H1396       H  0.13537297  0.85848914  0.51701123     0.14700
H1397       H  0.16018614  0.78344138  0.45879208     0.14500
C1398       C  0.32706856  0.75035483  0.78712327     0.86300
C1399       C  0.34670921  0.72525808  0.76562074    -0.53900
C1400       C  0.32369678  0.71035700  0.74427412     0.09200
C1401       C  0.28044403  0.72233276  0.74845581     0.20200
C1402       C  0.30474605  0.77680098  0.76039185    -0.54700
C1403       C  0.27977887  0.76292314  0.73997688     0.09300
C1404       C  0.29644434  0.73005908  0.80746686    -0.54200
C1405       C  0.27116885  0.71542936  0.78830691     0.09900
H1406       H  0.37689577  0.72240697  0.76488242     0.14400
H1407       H  0.26036032  0.71038902  0.73197680     0.00200
H1408       H  0.30685784  0.80454668  0.75801011     0.14700
H1409       H  0.29452653  0.72884647  0.83506769     0.14500
C1410       C  0.25366253  0.69358445  0.53271560     0.29800
C1411       C  0.19374003  0.73800111  0.51461662     0.29800
C1412       C  0.25932713  0.73233262  0.53580635    -0.06400
C1413       C  0.23971638  0.69632960  0.49285490    -0.07200
C1414       C  0.21630169  0.68411254  0.55014310    -0.07000
C1415       C  0.22886495  0.75406660  0.52717826    -0.06400
C1416       C  0.20838195  0.71949565  0.48427847    -0.07200
C1417       C  0.18680613  0.70742482  0.54199776    -0.07000
C1418       C  0.23926700  0.78725924  0.53028892    -0.32400
N1419       N  0.27555300  0.78721264  0.54124611     0.17800
C1420       C  0.28857080  0.75379679  0.54227026    -0.32400
H1421       H  0.31701581  0.74517121  0.54946181     0.16000
C1422       C  0.19611897  0.71819041  0.95059301    -0.31400
N1423       N  0.21861195  0.69505593  0.93709540     0.12800
C1424       C  0.24517422  0.68246701  0.96232317    -0.31400
C1425       C  0.15427416  0.69001261  0.54905574    -0.31700
N1426       N  0.16215001  0.65726413  0.56347232     0.13300
H1427       H  0.12725728  0.69917484  0.53902869     0.15900
C1428       C  0.19948399  0.65241952  0.55906520    -0.31700
H1429       H  0.21370310  0.62739387  0.56177626     0.15900
H1430       H  0.26647996  0.66306299  0.95917831     0.15900
H1431       H  0.22117774  0.80987093  0.52505782     0.16000
H1432       H  0.17231111  0.73180947  0.93693343     0.15900
C1433       C  0.23613101  0.69650912  0.80419626     0.29800
C1434       C  0.17233585  0.65897308  0.81949628     0.29800
C1435       C  0.23712077  0.65885604  0.79735343    -0.06400
C1436       C  0.22470771  0.69158281  0.84397397    -0.07200
C1437       C  0.19936369  0.71175471  0.78633828    -0.07000
C1438       C  0.20639732  0.63985103  0.80673503    -0.06400
C1439       C  0.19152596  0.67271313  0.85174258    -0.07200
C1440       C  0.16782189  0.69303895  0.79370512    -0.07000
C1441       C  0.21596087  0.60555826  0.80469723    -0.32400
N1442       N  0.25060725  0.60348352  0.79155663     0.14100
C1443       C  0.26367001  0.63614596  0.78749369    -0.32400
H1444       H  0.29069795  0.64341956  0.77881984     0.16000
C1445       C  0.18679365  0.67139653  0.88763310    -0.31400
N1446       N  0.21560892  0.68752111  0.90206153     0.12800
C1447       C  0.23829052  0.69999831  0.87579201    -0.31400
C1448       C  0.13753723  0.71442921  0.78034257    -0.31700
N1449       N  0.14951265  0.74412698  0.76172490     0.13300
H1450       H  0.10874057  0.70901113  0.78572710     0.15900
C1451       C  0.18671716  0.74412292  0.77023183    -0.31700
H1452       H  0.20323979  0.76687400  0.76790336     0.15900
H1453       H  0.26241781  0.71485118  0.87995215     0.15900
H1454       H  0.19859074  0.58394189  0.81240878     0.16000
H1455       H  0.16396211  0.65955729  0.90207277     0.15900
N1456       N  0.38609281  0.01772141  0.95189868    -0.06300
N1457       N  0.38820314  0.54294623  0.97128622    -0.58400
N1458       N  0.39080694  0.97943617  0.87570916    -0.06000
N1459       N  0.89793208  0.99946983  0.84688072    -0.60500
N1460       N  0.36164640  0.99205442  0.89011404    -0.05600
N1461       N  0.35799928  0.52617570  0.87609385    -0.58400
N1462       N  0.41781097  0.02067176  0.93546433    -0.05300
N1463       N  0.93651567  0.04590624  0.94566285    -0.60900
C1464       C  0.91951900  0.56076086  0.96435170     0.95900
C1465       C  0.88031083  0.52959670  0.84816678     0.95700
N1466       N  0.47384495  0.90734568  0.90508471    -0.06500
N1467       N  0.47261230  0.88086458  0.88774613    -0.59000
N1468       N  0.49445607  0.97885411  0.93597370    -0.04600
N1469       N  0.02431714  0.99118468  0.91976094    -0.60300
N1470       N  0.50448454  0.95292772  0.95993185    -0.06500
N1471       N  0.54119169  0.95065630  0.96262901    -0.59300
N1472       N  0.46333973  0.93583680  0.88473060    -0.04200
N1473       N  0.95639596  0.92945851  0.85291013    -0.60300
Mn1474     Mn  0.44138813  0.97922517  0.90774076     1.18400
C1475       C  0.46235801  0.89492180  0.85529557     0.98000
C1476       C  0.55363200  0.97245039  0.93569289     0.98600
N1477       N  0.32464387  0.92563917  0.94225266    -0.06500
N1478       N  0.30403301  0.42345599  0.91790175    -0.62800
N1479       N  0.35820687  0.93481593  0.02071307    -0.05300
N1480       N  0.34460047  0.93142114  0.05218485    -0.63500
N1481       N  0.34232355  0.96114399  0.00102896    -0.06000
N1482       N  0.31741014  0.47548761  0.01742200    -0.63100
N1483       N  0.33927792  0.89586138  0.95805875    -0.04900
N1484       N  0.33302346  0.87127803  0.93861114    -0.63800
Mn1485     Mn  0.35489714  0.47625555  0.94668543     1.10700
C1486       C  0.30761286  0.38939030  0.91611487     0.99200
C1487       C  0.32017649  0.45872784  0.05032547     0.99300
N1488       N  0.47011477  0.90175552  0.01769153    -0.06100
N1489       N  0.49405373  0.91412583  0.03882913    -0.61400
N1490       N  0.41347932  0.85215167  0.97782527    -0.05400
N1491       N  0.39818569  0.82352746  0.97106062    -0.58200
N1492       N  0.44649565  0.85514537  0.96447022    -0.06700
N1493       N  0.45416724  0.82873896  0.94791352    -0.61000
N1494       N  0.43615083  0.90278738  0.02966882    -0.05700
N1495       N  0.43641473  0.91901088  0.05701313    -0.58200
Mn1496     Mn  0.47490013  0.90397517  0.96177389     1.20200
Mn1497     Mn  0.38602519  0.89512580  0.99765451     1.10100
Cl1498     Cl  0.41360972  0.93802390  0.95346499    -0.86100
C1499       C  0.47295263  0.92379370  0.06445240     0.96200
C1500       C  0.42380594  0.80890459  0.95226368     0.96000
C1501       C  0.35373373  0.76539157  0.81149080    -0.05400
C1502       C  0.36323197  0.80038199  0.80619992    -0.05400
C1503       C  0.38005798  0.81522161  0.83269896    -0.23500
C1504       C  0.38830864  0.79531691  0.86471770     0.18700
C1505       C  0.38248654  0.75946578  0.86937363     0.15900
C1506       C  0.36646128  0.74453635  0.84224007    -0.18600
C1507       C  0.39113476  0.73960689  0.90161440    -0.20400
C1508       C  0.40512800  0.75542449  0.92904352    -0.12900
C1509       C  0.41087096  0.79099085  0.92414927     0.03700
C1510       C  0.40203062  0.81081384  0.89224290    -0.25100
H1511       H  0.35742882  0.81683435  0.78200352     0.08800
H1512       H  0.38591348  0.84247055  0.82832768     0.12400
H1513       H  0.36108005  0.71714739  0.84607948     0.12300
H1514       H  0.38646558  0.71211006  0.90574779     0.12100
H1515       H  0.41123313  0.74009018  0.95397139     0.12600
H1516       H  0.40572282  0.83848123  0.88901424     0.14600
C1517       C  0.10836302  0.83569074  0.45821725    -0.05400
C1518       C  0.07416203  0.83584345  0.44003135    -0.05400
C1519       C  0.06329965  0.86442947  0.41585431    -0.23500
C1520       C  0.08434953  0.89439664  0.41299069     0.18700
C1521       C  0.12021278  0.89298663  0.42880906     0.15900
C1522       C  0.13357012  0.86206362  0.44787916    -0.18600
C1523       C  0.13875310  0.92375185  0.43120453    -0.20400
C1524       C  0.11827829  0.95514598  0.42565552    -0.12900
C1525       C  0.08080405  0.95573457  0.41444958     0.03700
C1526       C  0.06747918  0.92669648  0.40093730    -0.25100
H1527       H  0.05530053  0.81476874  0.44529106     0.08800
H1528       H  0.03647870  0.86451940  0.40293792     0.12400
H1529       H  0.16109928  0.86116771  0.46017789     0.12300
H1530       H  0.16639325  0.92308234  0.44318891     0.12100
H1531       H  0.62987911  0.97830943  0.93603039     0.12600
H1532       H  0.03907224  0.92769665  0.39084878     0.14600
C1533       C  0.30851309  0.48316777  0.79122603    -0.05400
C1534       C  0.34566236  0.47010495  0.79499248    -0.05400
C1535       C  0.35432573  0.43862623  0.81598257    -0.23500
C1536       C  0.32593486  0.41934878  0.83274542     0.18700
C1537       C  0.28834590  0.42993192  0.82534245     0.15900
C1538       C  0.27999698  0.46204134  0.80577271    -0.18600
C1539       C  0.25980540  0.40954622  0.84029762    -0.20400
C1540       C  0.26853880  0.38307323  0.86743542    -0.12900
C1541       C  0.30508948  0.37955558  0.88135570     0.03700
C1542       C  0.33415850  0.39241811  0.85992470    -0.25100
H1543       H  0.36843807  0.48459266  0.78340126     0.08800
H1544       H  0.38331116  0.43027635  0.82047640     0.12400
H1545       H  0.25107178  0.47114938  0.80262553     0.12300
H1546       H  0.23074027  0.41624233  0.83357637     0.12100
H1547       H  0.24580694  0.37158267  0.88238496     0.12600
H1548       H  0.36817396  0.88934344  0.86594912     0.14600
C1549       C  0.48825757  0.90918137  0.60120244    -0.05400
C1550       C  0.46849565  0.92656769  0.62472579    -0.05400
C1551       C  0.43476375  0.91266739  0.63707884    -0.23500
C1552       C  0.42371078  0.88157884  0.62611285     0.18700
C1553       C  0.45139831  0.86021746  0.61327332     0.15900
C1554       C  0.48743200  0.87303146  0.60824420    -0.18600
C1555       C  0.44064808  0.83287960  0.59625858    -0.20400
C1556       C  0.40312235  0.82962420  0.58778611    -0.12900
C1557       C  0.37503984  0.85138040  0.59903865     0.03700
C1558       C  0.38575786  0.87580329  0.62046377    -0.25100
H1559       H  0.47332349  0.95355826  0.62600283     0.08800
H1560       H  0.41528322  0.92870093  0.64910911     0.12400
H1561       H  0.50636528  0.86383662  0.09814803     0.12300
H1562       H  0.46133802  0.81648874  0.58606855     0.12100
H1563       H  0.39572038  0.80879275  0.57360480     0.12600
H1564       H  0.36505741  0.89172353  0.63101409     0.14600
C1565       C  0.03511173  0.60509140  0.82586741    -0.05400
C1566       C  0.02474191  0.60677893  0.86022092    -0.05400
C1567       C  0.98832781  0.59806158  0.87110787    -0.23500
C1568       C  0.96148438  0.58775070  0.84781689     0.18700
C1569       C  0.97129458  0.58755590  0.81310413     0.15900
C1570       C  0.00761927  0.59545193  0.80272197    -0.18600
C1571       C  0.94503782  0.57811906  0.78931328    -0.20400
C1572       C  0.41105070  0.56482241  0.80057627    -0.12900
C1573       C  0.90219788  0.56062157  0.83569406     0.03700
C1574       C  0.92605241  0.57542085  0.85862030    -0.25100
H1575       H  0.04469516  0.61425293  0.87877122     0.08800
H1576       H  0.98145863  0.59867207  0.89791250     0.12400
H1577       H  0.01476220  0.59392780  0.77609023     0.12300
H1578       H  0.45186563  0.57864538  0.76233076     0.12100
H1579       H  0.39375363  0.55384621  0.78241927     0.12600
H1580       H  0.91835102  0.57468461  0.88513333     0.14600
C1581       C  0.35685201  0.59857929  0.55117282    -0.05400
C1582       C  0.34118330  0.58952452  0.52043361    -0.05400
C1583       C  0.31804149  0.56145079  0.52377885    -0.23500
C1584       C  0.32128064  0.53789920  0.55417079     0.18700
C1585       C  0.35222708  0.53920658  0.57708325     0.15900
C1586       C  0.37130803  0.57038601  0.57502084    -0.18600
C1587       C  0.36022157  0.51053024  0.60242183    -0.20400
C1588       C  0.34041747  0.48018001  0.60081308    -0.12900
C1589       C  0.31128716  0.48038142  0.57571128     0.03700
C1590       C  0.29539583  0.51246945  0.56207167    -0.25100
H1591       H  0.33839568  0.60803337  0.49714228     0.08800
H1592       H  0.29792037  0.55836515  0.50339334     0.12400
H1593       H  0.38978004  0.57474583  0.59622214     0.12300
H1594       H  0.38337256  0.51051229  0.62074991     0.12100
H1595       H  0.35114946  0.45613569  0.61509279     0.12600
H1596       H  0.27042666  0.51334184  0.54561486     0.14600
C1597       C  0.04855932  0.83794001  0.73446185    -0.05400
C1598       C  0.04480011  0.87422349  0.72605538    -0.05400
C1599       C  0.02088482  0.89311249  0.74454149    -0.23500
C1600       C  0.00072609  0.87604727  0.77167262     0.18700
C1601       C  0.00117149  0.83952078  0.77736946     0.15900
C1602       C  0.02365675  0.82083053  0.75757115    -0.18600
C1603       C  0.98288693  0.82217157  0.80551009    -0.20400
C1604       C  0.96855539  0.84074468  0.83025781    -0.12900
C1605       C  0.96926510  0.87687778  0.82564872     0.03700
C1606       C  0.98318922  0.89465733  0.79518750    -0.25100
H1607       H  0.06034953  0.88857125  0.70583919     0.08800
H1608       H  0.02002284  0.92107098  0.73908211     0.12400
H1609       H  0.02480303  0.79282745  0.76279212     0.12300
H1610       H  0.98314706  0.79419080  0.81029179     0.12100
H1611       H  0.45953494  0.82656366  0.85428562     0.12600
H1612       H  0.98444958  0.92259078  0.79186463     0.14600
C1613       C  0.93774593  0.57770408  0.49046026    -0.05400
C1614       C  0.95434073  0.60981754  0.97750791    -0.05400
C1615       C  0.98524817  0.61896845  0.49627367    -0.23500
C1616       C  0.00000936  0.59742913  0.52533384     0.18700
C1617       C  0.98176195  0.56714109  0.53880449     0.15900
C1618       C  0.94982901  0.55787898  0.52164709    -0.18600
C1619       C  0.99703685  0.54580038  0.56788731    -0.20400
C1620       C  0.03051268  0.55427596  0.58317015    -0.12900
C1621       C  0.04934928  0.58391926  0.56911095     0.03700
C1622       C  0.03329317  0.60548543  0.54049178    -0.25100
H1623       H  0.94559646  0.62446038  0.95283450     0.08800
H1624       H  0.99838518  0.64385402  0.98505722     0.12400
H1625       H  0.43709935  0.53352010  0.53015166     0.12300
H1626       H  0.98305364  0.52274487  0.57884795     0.12100
H1627       H  0.04051824  0.53835586  0.60663432     0.12600
H1628       H  0.04604267  0.62959920  0.53072799     0.14600
C1629       C  0.57694124  0.09845030  0.08907097     0.86300
C1630       C  0.60025001  0.07422220  0.11691981    -0.53900
C1631       C  0.62609508  0.09035643  0.13440687     0.09200
C1632       C  0.62477426  0.13110780  0.12146519     0.20200
C1633       C  0.55901191  0.12675247  0.10784283    -0.54700
C1634       C  0.58329110  0.14523953  0.12369626     0.09300
C1635       C  0.60636969  0.11696410  0.06506770    -0.54200
C1636       C  0.63197151  0.13427182  0.08166798     0.09900
H1637       H  0.59833433  0.04646486  0.12145317     0.14400
H1638       H  0.64367088  0.14609515  0.13588287     0.00200
H1639       H  0.52937750  0.13348279  0.10599468     0.14700
H1640       H  0.60593545  0.11749786  0.03716123     0.14500
C1641       C  0.57222534  0.17980436  0.13728322     0.29800
C1642       C  0.57097883  0.24129252  0.16394935     0.29800
C1643       C  0.58361063  0.21149917  0.11269684    -0.06400
C1644       C  0.53204243  0.19231041  0.14847171    -0.07200
C1645       C  0.59567328  0.18103815  0.16974581    -0.07000
C1646       C  0.58257396  0.24290933  0.12593218    -0.06400
C1647       C  0.53140707  0.22410252  0.16252432    -0.07200
C1648       C  0.59294886  0.21143474  0.18398771    -0.07000
C1649       C  0.57336090  0.26757575  0.09749189    -0.32400
N1650       N  0.57423926  0.25389921  0.06741752     0.14100
C1651       C  0.57645720  0.21931172  0.07743757    -0.32400
H1652       H  0.57008712  0.20057719  0.06042122     0.16000
C1653       C  0.99432969  0.22982665  0.17217214    -0.31400
N1654       N  0.97245479  0.20372795  0.16402332     0.12800
C1655       C  0.99519327  0.18103869  0.14954951    -0.31400
C1656       C  0.59003776  0.20182145  0.21900519    -0.31700
N1657       N  0.59652897  0.16784086  0.22680863     0.13300
H1658       H  0.57678298  0.21766196  0.23604291     0.15900
C1659       C  0.59881591  0.15494982  0.19690081    -0.31700
H1660       H  0.59406783  0.12892627  0.19408168     0.15900
H1661       H  0.98566841  0.15765530  0.14085466     0.15900
H1662       H  0.56434394  0.29401960  0.09859713     0.16000
H1663       H  0.98393314  0.25158442  0.18384312     0.15900
C1664       C  0.57504507  0.31612525  0.22035434     0.86300
C1665       C  0.60566424  0.33713715  0.20083996    -0.53900
C1666       C  0.63285422  0.31807538  0.18807668     0.09200
C1667       C  0.62531099  0.27798011  0.19602115     0.20200
C1668       C  0.55856589  0.29348279  0.19516684    -0.54700
C1669       C  0.58354321  0.27276446  0.18202301     0.09300
C1670       C  0.59703471  0.29108545  0.24884911    -0.54200
C1671       C  0.62400740  0.27084077  0.23703926     0.09900
H1672       H  0.60696576  0.36470814  0.19878111     0.14400
H1673       H  0.64613385  0.26141454  0.18495435     0.00200
H1674       H  0.52880181  0.29258528  0.18989945     0.14700
H1675       H  0.59178520  0.28969459  0.27630313     0.14500
C1676       C  0.71613542  0.04675487  0.20329798     0.29800
C1677       C  0.65690421  0.06972336  0.15936767     0.29800
C1678       C  0.72431091  0.07352511  0.17333702    -0.06400
C1679       C  0.70003522  0.01822394  0.18425338    -0.07200
C1680       C  0.68143245  0.06046521  0.21983496    -0.07000
C1681       C  0.69479146  0.08792158  0.15342608    -0.06400
C1682       C  0.66941492  0.02887950  0.16094906    -0.07200
C1683       C  0.65092951  0.07105693  0.19824387    -0.07000
C1684       C  0.71044633  0.11393854  0.13110259    -0.32400
N1685       N  0.74806710  0.11023002  0.13179482     0.14100
C1686       C  0.75642818  0.08360458  0.15695862    -0.32400
H1687       H  0.78304174  0.07018502  0.16166453     0.16000
C1688       C  0.65817737  0.49781002  0.14940587    -0.31400
N1689       N  0.68098796  0.47020740  0.16432636     0.12800
C1690       C  0.70630732  0.48287363  0.18505156    -0.31400
C1691       C  0.62117734  0.07301770  0.22028346    -0.31700
N1692       N  0.63377123  0.06906865  0.25390046     0.13300
H1693       H  0.59199404  0.07658630  0.21261531     0.15900
C1694       C  0.67027691  0.05917704  0.25350333    -0.31700
H1695       H  0.68760034  0.05072125  0.27616988     0.15900
H1696       H  0.72893426  0.46731897  0.19838556     0.15900
H1697       H  0.69624486  0.13592391  0.11829244     0.16000
H1698       H  0.63617916  0.49561792  0.13050533     0.15900
C1699       C  0.82798284  0.12419958  0.06891067     0.86300
C1700       C  0.84743439  0.14414331  0.09510889    -0.53900
C1701       C  0.82362088  0.16427663  0.11120677     0.09200
C1702       C  0.78169983  0.16348470  0.09701475     0.20200
C1703       C  0.79680351  0.10512760  0.09031037    -0.54700
C1704       C  0.77323531  0.12522263  0.10557943     0.09300
C1705       C  0.80695636  0.15162730  0.04212883    -0.54200
C1706       C  0.78118256  0.17126292  0.05574741     0.09900
H1707       H  0.87634233  0.13895501  0.10350785     0.14400
H1708       H  0.76096084  0.17933681  0.10903976     0.00200
H1709       H  0.79452951  0.07758019  0.09593794     0.14700
H1710       H  0.81011950  0.15409306  0.01437674     0.14500
C1711       C  0.57072838  0.11560404  0.31139222     0.86300
C1712       C  0.56510493  0.14290012  0.27893693    -0.53900
C1713       C  0.59618739  0.14810210  0.26027461     0.09200
C1714       C  0.63059647  0.12812797  0.27591493     0.20200
C1715       C  0.58858172  0.08360931  0.29751567    -0.54700
C1716       C  0.61971502  0.09042962  0.27861720     0.09300
C1717       C  0.60313271  0.13072881  0.33243156    -0.54200
C1718       C  0.63480696  0.13811326  0.31321044     0.09900
H1719       H  0.53843207  0.15543874  0.27022552     0.14400
H1720       H  0.65488435  0.13370593  0.25905164     0.00200
H1721       H  0.57529624  0.05885048  0.29924178     0.14700
H1722       H  0.60007037  0.13768234  0.35818044     0.14500
C1723       C  0.83579635  0.19745280  0.21153710     0.29800
C1724       C  0.83322682  0.17497073  0.14729197     0.29800
C1725       C  0.81127656  0.21713614  0.18357349    -0.06400
C1726       C  0.87445002  0.19945531  0.19153479    -0.07200
C1727       C  0.82629979  0.15942559  0.21087993    -0.07000
C1728       C  0.80662780  0.20433405  0.15267714    -0.06400
C1729       C  0.87257335  0.18781228  0.15845245    -0.07200
C1730       C  0.82504732  0.14813833  0.17841525    -0.07000
C1731       C  0.79589376  0.23167120  0.12873773    -0.32400
N1732       N  0.79752352  0.26060626  0.14294382     0.14100
C1733       C  0.81041770  0.25208797  0.17529164    -0.32400
H1734       H  0.82472791  0.26945879  0.18996738     0.16000
C1735       C  0.90857430  0.18899111  0.14538690    -0.31400
N1736       N  0.93267978  0.20107534  0.16822285     0.12800
C1737       C  0.91220270  0.20780896  0.19620737    -0.31400
C1738       C  0.82928931  0.11270661  0.18417807    -0.31700
N1739       N  0.83032673  0.10142543  0.21866656     0.13300
H1740       H  0.83378010  0.09637701  0.16443046     0.15900
C1741       C  0.83248749  0.13001734  0.23454717    -0.31700
H1742       H  0.83973305  0.12916681  0.26167237     0.15900
H1743       H  0.92402777  0.21681048  0.21894048     0.15900
H1744       H  0.79514270  0.23086893  0.10188615     0.16000
H1745       H  0.91677347  0.18115427  0.12106800     0.15900
C1746       C  0.83100673  0.34273173  0.09559374     0.86300
C1747       C  0.79799812  0.36491439  0.10792020    -0.53900
C1748       C  0.76521302  0.34751265  0.11127957     0.09200
C1749       C  0.76908060  0.31027235  0.10066779     0.20200
C1750       C  0.83234452  0.31006733  0.12189011    -0.54700
C1751       C  0.80037200  0.29335145  0.12355266     0.09300
C1752       C  0.81699479  0.33027438  0.06106152    -0.54200
C1753       C  0.78451972  0.31238296  0.06432511     0.09900
H1754       H  0.80099713  0.38979573  0.11670202     0.14400
H1755       H  0.74420660  0.29399133  0.10385474     0.00200
H1756       H  0.85713371  0.29976074  0.13693219     0.14700
H1757       H  0.83331919  0.33201388  0.03781154     0.14500
C1758       C  0.79488745  0.02000157  0.27202989     0.86300
C1759       C  0.76406471  0.01496978  0.24555005    -0.53900
C1760       C  0.74893603  0.04454929  0.22858285     0.09200
C1761       C  0.76679014  0.07761219  0.23905523     0.20200
C1762       C  0.82378881  0.04223733  0.25044537    -0.54700
C1763       C  0.80880642  0.07282546  0.23383213     0.09300
C1764       C  0.77735074  0.04488588  0.29584391    -0.54200
C1765       C  0.76323191  0.07546364  0.27815314     0.09900
H1766       H  0.75414426  0.98991435  0.24186026     0.14400
H1767       H  0.75477620  0.10238166  0.22521791     0.00200
H1768       H  0.85283017  0.03507471  0.24812224     0.14700
H1769       H  0.77728904  0.03916218  0.32387790     0.14500
C1770       C  0.66769322  0.33480579  0.16974023     0.29800
C1771       C  0.73147897  0.35392547  0.13404315     0.29800
C1772       C  0.66822428  0.32919075  0.13241743    -0.06400
C1773       C  0.67714755  0.37581241  0.16556705    -0.07200
C1774       C  0.70479344  0.31659816  0.18385943    -0.07000
C1775       C  0.69867149  0.34072467  0.11420952    -0.06400
C1776       C  0.71020885  0.38482059  0.14682116    -0.07200
C1777       C  0.73658863  0.32911748  0.16864541    -0.07000
C1778       C  0.69040468  0.33979398  0.07972101    -0.32400
N1779       N  0.65753644  0.32423152  0.07730507     0.14100
C1780       C  0.64342163  0.31860313  0.10945716    -0.32400
H1781       H  0.61681152  0.30905283  0.11620543     0.16000
C1782       C  0.71277383  0.42061606  0.14265498    -0.31400
N1783       N  0.68286961  0.43507030  0.15716313     0.12800
C1784       C  0.66154807  0.40824943  0.17163483    -0.31400
C1785       C  0.76631724  0.31394150  0.18958769    -0.31700
N1786       N  0.75403828  0.28700923  0.21232774     0.13300
H1787       H  0.79509501  0.32132035  0.18721114     0.15900
C1788       C  0.71653498  0.28736926  0.20619842    -0.31700
H1789       H  0.69974662  0.26566097  0.21260479     0.15900
H1790       H  0.63681352  0.41229050  0.18602653     0.15900
H1791       H  0.70764571  0.34918822  0.05831465     0.16000
H1792       H  0.73521703  0.43513105  0.13021600     0.15900
C1793       C  0.61524411  0.31134613  0.99005487     0.86300
C1794       C  0.58379338  0.29009900  0.00971802    -0.53900
C1795       C  0.59688012  0.26983546  0.03962405     0.09200
C1796       C  0.63882911  0.27254811  0.04617524     0.20200
C1797       C  0.63166304  0.33135043  0.01811456    -0.54700
C1798       C  0.64366643  0.31092993  0.04725049     0.09300
C1799       C  0.64561654  0.28471901  0.98366559    -0.54200
C1800       C  0.65773245  0.26401991  0.01271463     0.09900
H1801       H  0.55430935  0.29301100  0.00268231     0.14400
H1802       H  0.64929316  0.25674600  0.07055202     0.00200
H1803       H  0.63248696  0.35932039  0.01575088     0.14700
H1804       H  0.65765154  0.28366628  0.95855563     0.14500
C1805       C  0.82351457  0.25309557  0.28725795     0.86300
C1806       C  0.84358781  0.22822193  0.26573185    -0.53900
C1807       C  0.82082350  0.21302250  0.24438503     0.09200
C1808       C  0.77745442  0.22442681  0.24853951     0.20200
C1809       C  0.80092025  0.27926339  0.26042511    -0.54700
C1810       C  0.77630289  0.26503868  0.23990486     0.09300
C1811       C  0.79312259  0.23239437  0.30755617    -0.54200
C1812       C  0.76817411  0.21731591  0.28841954     0.09900
H1813       H  0.87380458  0.22573050  0.26498800     0.14400
H1814       H  0.75763627  0.21223348  0.23202203     0.00200
H1815       H  0.80271142  0.30704304  0.25796987     0.14700
H1816       H  0.79110145  0.23126566  0.33513892     0.14500
C1817       C  0.75044521  0.19426401  0.03342622     0.29800
C1818       C  0.69057334  0.23850884  0.01476119     0.29800
C1819       C  0.75585928  0.23307545  0.03668641    -0.06400
C1820       C  0.73706023  0.19707741  0.99342055    -0.07200
C1821       C  0.71282990  0.18462009  0.05040664    -0.07000
C1822       C  0.72533367  0.25464560  0.02780855    -0.06400
C1823       C  0.70579330  0.22023798  0.98453941    -0.07200
C1824       C  0.68329462  0.20781145  0.04190126    -0.07000
C1825       C  0.73543160  0.28800272  0.03049634    -0.32400
N1826       N  0.77164320  0.28831489  0.04140132     0.17800
C1827       C  0.78494824  0.25492752  0.04272625    -0.32400
H1828       H  0.81352071  0.24660480  0.04977941     0.16000
C1829       C  0.69322754  0.21873882  0.45098722    -0.31400
N1830       N  0.71594644  0.19594146  0.43732365     0.12800
C1831       C  0.74246880  0.18322436  0.46257036    -0.31400
C1832       C  0.65074653  0.19021870  0.04845539    -0.31700
N1833       N  0.65860264  0.15748676  0.06307179     0.13300
H1834       H  0.62384953  0.19926928  0.03798012     0.15900
C1835       C  0.69609135  0.15284975  0.05926770    -0.31700
H1836       H  0.71052808  0.12789970  0.06259018     0.15900
H1837       H  0.76388107  0.16395658  0.45930675     0.15900
H1838       H  0.71725984  0.31052722  0.02484478     0.16000
H1839       H  0.66934429  0.23227040  0.43737952     0.15900
C1840       C  0.73325392  0.19802291  0.30436148     0.29800
C1841       C  0.66936370  0.16041631  0.31956968     0.29800
C1842       C  0.73436520  0.16018678  0.29791477    -0.06400
C1843       C  0.72162878  0.19328493  0.34405660    -0.07200
C1844       C  0.69650152  0.21299859  0.28625748    -0.07000
C1845       C  0.70344229  0.14129132  0.30705793    -0.06400
C1846       C  0.68845187  0.17436875  0.35178739    -0.07200
C1847       C  0.66498393  0.19423141  0.29354745    -0.07000
C1848       C  0.71300199  0.10688036  0.30587586    -0.32400
N1849       N  0.74802635  0.10438966  0.29374598     0.14100
C1850       C  0.76128235  0.13701633  0.28955128    -0.32400
H1851       H  0.78876111  0.14394186  0.28204412     0.16000
C1852       C  0.68393822  0.17272441  0.38773139    -0.31400
N1853       N  0.71287808  0.18863856  0.40221936     0.12800
C1854       C  0.73542820  0.20135189  0.37594090    -0.31400
C1855       C  0.63474416  0.21529509  0.27965884    -0.31700
N1856       N  0.64674811  0.24480129  0.26077887     0.13300
H1857       H  0.60593647  0.20989172  0.28496599     0.15900
C1858       C  0.68382764  0.24513977  0.26966802    -0.31700
H1859       H  0.70017119  0.26799905  0.26736243     0.15900
H1860       H  0.75972019  0.21596295  0.38017899     0.15900
H1861       H  0.69538479  0.08543869  0.31354012     0.16000
H1862       H  0.66123233  0.16068826  0.40219943     0.15900
N1863       N  0.88830888  0.52051057  0.44929305    -0.06300
N1864       N  0.88353563  0.04135825  0.47332930    -0.58400
N1865       N  0.88876028  0.48108482  0.37337604    -0.06000
N1866       N  0.39560011  0.50074757  0.34409623    -0.60500
N1867       N  0.86087701  0.49486041  0.38852275    -0.05600
N1868       N  0.85584903  0.02500478  0.37718636    -0.58400
N1869       N  0.91907731  0.52310621  0.43128647    -0.05300
N1870       N  0.43938974  0.54769721  0.44093278    -0.60900
C1871       C  0.41454966  0.05981894  0.46727888     0.95900
C1872       C  0.37849928  0.02900006  0.34940082     0.95700
N1873       N  0.97207199  0.40844033  0.40238227    -0.06500
N1874       N  0.96941359  0.38113777  0.38641461    -0.59000
N1875       N  0.99489072  0.48048881  0.42972853    -0.04600
N1876       N  0.52432754  0.49125491  0.41171950    -0.60300
N1877       N  0.00527677  0.45551406  0.45458609    -0.06500
N1878       N  0.04201050  0.45264602  0.45598386    -0.59300
N1879       N  0.96067406  0.43626387  0.38143624    -0.04200
N1880       N  0.45168582  0.42847419  0.35053381    -0.60300
Mn1881     Mn  0.94057906  0.48077514  0.40365354     1.18400
C1882       C  0.95734273  0.39382675  0.35412550     0.98000
C1883       C  0.05376503  0.47266495  0.42748966     0.98600
N1884       N  0.82416934  0.42928581  0.44219554    -0.06500
N1885       N  0.80359236  0.92150972  0.41706341    -0.62800
N1886       N  0.86007439  0.43930693  0.51952141    -0.05300
N1887       N  0.84472495  0.43465671  0.55024625    -0.63500
N1888       N  0.84338443  0.46494605  0.49949863    -0.06000
N1889       N  0.81806009  0.97441359  0.52024081    -0.63100
N1890       N  0.83863764  0.39960079  0.45830866    -0.04900
N1891       N  0.83027863  0.37442317  0.44026934    -0.63800
Mn1892     Mn  0.85262338  0.97426144  0.44777016     1.10700
C1893       C  0.80825693  0.88776401  0.41420505     0.99200
C1894       C  0.82127693  0.95675211  0.55276496     0.99300
N1895       N  0.97130699  0.40569001  0.51486290    -0.06100
N1896       N  0.99576256  0.41667106  0.53651348    -0.61400
N1897       N  0.91327053  0.35562360  0.47668978    -0.05400
N1898       N  0.89744574  0.32711227  0.47030338    -0.58200
N1899       N  0.94636189  0.35787975  0.46339600    -0.06700
N1900       N  0.95350781  0.33107206  0.44723926    -0.61000
N1901       N  0.93747632  0.40734346  0.52693487    -0.05700
N1902       N  0.93824875  0.42308797  0.55452939    -0.58200
Mn1903     Mn  0.97505664  0.40666153  0.45885806     1.20200
Mn1904     Mn  0.88675189  0.39918141  0.49637176     1.10100
Cl1905     Cl  0.91379193  0.44093939  0.45103722    -0.86100
C1906       C  0.97493384  0.42598834  0.56259245     0.96200
C1907       C  0.92275706  0.31177953  0.45174898     0.96000
C1908       C  0.84990093  0.26843195  0.31176235    -0.05400
C1909       C  0.85899756  0.30353918  0.30656695    -0.05400
C1910       C  0.87625829  0.31835218  0.33289787    -0.23500
C1911       C  0.88523417  0.29837118  0.36473234     0.18700
C1912       C  0.87967309  0.26248665  0.36933473     0.15900
C1913       C  0.86311897  0.24758892  0.34238243    -0.18600
C1914       C  0.88933714  0.24251641  0.40130840    -0.20400
C1915       C  0.90403812  0.25825513  0.42852642    -0.12900
C1916       C  0.90933969  0.29389264  0.42374376     0.03700
C1917       C  0.89953655  0.31380421  0.39209847    -0.25100
H1918       H  0.85268998  0.32008091  0.28252556     0.08800
H1919       H  0.88201896  0.34562033  0.32850448     0.12400
H1920       H  0.85798770  0.22015447  0.34619977     0.12300
H1921       H  0.88497492  0.21496851  0.40539646     0.12100
H1922       H  0.91095501  0.24280976  0.45323190     0.12600
H1923       H  0.90314585  0.34145999  0.38889724     0.14600
C1924       C  0.60619992  0.33592264  0.95707330    -0.05400
C1925       C  0.57239164  0.33591053  0.93830935    -0.05400
C1926       C  0.56264761  0.36369726  0.91275956    -0.23500
C1927       C  0.58427990  0.39328879  0.90901943     0.18700
C1928       C  0.61995032  0.39183356  0.92522532     0.15900
C1929       C  0.63213408  0.36154195  0.94619595    -0.18600
C1930       C  0.63945261  0.42239758  0.92581401    -0.20400
C1931       C  0.61981178  0.45415401  0.91864287    -0.12900
C1932       C  0.58207174  0.45490918  0.90822914     0.03700
C1933       C  0.56812364  0.42559135  0.89567800    -0.25100
H1934       H  0.55309467  0.31524399  0.94395451     0.08800
H1935       H  0.53633203  0.36357661  0.89905798     0.12400
H1936       H  0.65941687  0.36068678  0.95896145     0.12300
H1937       H  0.66716647  0.42168909  0.93764950     0.12100
H1938       H  0.13018152  0.47736121  0.42446542     0.12600
H1939       H  0.53964866  0.42675651  0.88567738     0.14600
C1940       C  0.80738847  0.98484495  0.29155907    -0.05400
C1941       C  0.84482616  0.97250720  0.29476032    -0.05400
C1942       C  0.85432529  0.94078879  0.31503726    -0.23500
C1943       C  0.82646837  0.92053387  0.33149663     0.18700
C1944       C  0.78865710  0.93049315  0.32447328     0.15900
C1945       C  0.77949742  0.96289182  0.30591650    -0.18600
C1946       C  0.76064588  0.90902782  0.33871041    -0.20400
C1947       C  0.76999888  0.88187048  0.36496391    -0.12900
C1948       C  0.80649553  0.87886734  0.37902064     0.03700
C1949       C  0.83531612  0.89306104  0.35799429    -0.25100
H1950       H  0.86716483  0.98772282  0.28331379     0.08800
H1951       H  0.88350338  0.93295657  0.31919631     0.12400
H1952       H  0.75037614  0.97145080  0.30322451     0.12300
H1953       H  0.73145575  0.91524167  0.33212662     0.12100
H1954       H  0.74753443  0.86930612  0.37945395     0.12600
H1955       H  0.86379129  0.38994457  0.36840680     0.14600
C1956       C  0.98736081  0.40968323  0.10154081    -0.05400
C1957       C  0.96726835  0.42694794  0.12500789    -0.05400
C1958       C  0.93243815  0.41410287  0.13568923    -0.23500
C1959       C  0.92047252  0.38388096  0.12348550     0.18700
C1960       C  0.94765631  0.36225619  0.11035270     0.15900
C1961       C  0.98447427  0.37362578  0.10696651    -0.18600
C1962       C  0.93622202  0.33596962  0.09218444    -0.20400
C1963       C  0.89856035  0.33341486  0.08383687    -0.12900
C1964       C  0.87086590  0.35480510  0.09620726     0.03700
C1965       C  0.88228031  0.37870119  0.11798900    -0.25100
H1966       H  0.97315702  0.45349403  0.12748578     0.08800
H1967       H  0.91321233  0.43035592  0.14775112     0.12400
H1968       H  0.00385684  0.36280323  0.59283072     0.12300
H1969       H  0.95652473  0.31961100  0.08145424     0.12100
H1970       H  0.89078401  0.31305818  0.06917983     0.12600
H1971       H  0.86187032  0.39432757  0.12929611     0.14600
C1972       C  0.53202391  0.10696110  0.32641669    -0.05400
C1973       C  0.52255741  0.10684919  0.36128622    -0.05400
C1974       C  0.48655485  0.09719818  0.37261920    -0.23500
C1975       C  0.45924224  0.08771224  0.34928786     0.18700
C1976       C  0.46812681  0.08923080  0.31416614     0.15900
C1977       C  0.50402954  0.09815073  0.30328348    -0.18600
C1978       C  0.44150156  0.08020021  0.29046409    -0.20400
C1979       C  0.90815652  0.06563510  0.30209264    -0.12900
C1980       C  0.40001141  0.06037159  0.33731088     0.03700
C1981       C  0.42429312  0.07448502  0.36037686    -0.25100
H1982       H  0.54301593  0.11333437  0.37992243     0.08800
H1983       H  0.48042792  0.09629023  0.39978966     0.12400
H1984       H  0.51054675  0.09769707  0.27633151     0.12300
H1985       H  0.94764981  0.08183689  0.26325216     0.12100
H1986       H  0.89069660  0.05492116  0.28387174     0.12600
H1987       H  0.41732932  0.07254179  0.38712398     0.14600
C1988       C  0.85235578  0.09805826  0.05341782    -0.05400
C1989       C  0.83570851  0.08786090  0.02360543    -0.05400
C1990       C  0.81358030  0.05912489  0.02831764    -0.23500
C1991       C  0.81860324  0.03603323  0.05885602     0.18700
C1992       C  0.85009587  0.03872403  0.08069328     0.15900
C1993       C  0.86779864  0.07067036  0.07775735    -0.18600
C1994       C  0.86092671  0.00995679  0.10503223    -0.20400
C1995       C  0.84337106  0.97846769  0.10308324    -0.12900
C1996       C  0.81327312  0.97760282  0.07920963     0.03700
C1997       C  0.79485901  0.00887934  0.06696547    -0.25100
H1998       H  0.83151175  0.10578370  0.00004090     0.08800
H1999       H  0.79313437  0.05494301  0.00858310     0.12400
H2000       H  0.88686418  0.07589460  0.09818164     0.12300
H2001       H  0.88485056  0.01079031  0.12232390     0.12100
H2002       H  0.85632227  0.95477197  0.11599425     0.12600
H2003       H  0.76953147  0.00854390  0.05119503     0.14600
C2004       C  0.54421487  0.33659174  0.23465627    -0.05400
C2005       C  0.53782779  0.37240468  0.22481223    -0.05400
C2006       C  0.51247132  0.39057842  0.24260990    -0.23500
C2007       C  0.49393345  0.37328617  0.27075480     0.18700
C2008       C  0.49745254  0.33689110  0.27825637     0.15900
C2009       C  0.52086486  0.31874546  0.25882564    -0.18600
C2010       C  0.48136171  0.31953290  0.30767327    -0.20400
C2011       C  0.46625098  0.33843107  0.33178527    -0.12900
C2012       C  0.46382161  0.37461389  0.32526731     0.03700
C2013       C  0.47526164  0.39189294  0.29356806    -0.25100
H2014       H  0.55236837  0.38678397  0.20385149     0.08800
H2015       H  0.50933048  0.41836453  0.23588061     0.12400
H2016       H  0.52388894  0.29086807  0.26503989     0.12300
H2017       H  0.48418973  0.29167272  0.31391078     0.12100
H2018       H  0.95932275  0.32473356  0.35666061     0.12600
H2019       H  0.47412325  0.41989228  0.28874291     0.14600
C2020       C  0.43154943  0.07460127  0.99548665    -0.05400
C2021       C  0.44421361  0.10968767  0.48580147    -0.05400
C2022       C  0.47275085  0.11995172  0.00551143    -0.23500
C2023       C  0.49301538  0.09650050  0.02992227     0.18700
C2024       C  0.48068656  0.06258036  0.03911357     0.15900
C2025       C  0.44909711  0.05215118  0.02250027    -0.18600
C2026       C  0.50148225  0.03909678  0.06304764    -0.20400
C2027       C  0.53412579  0.04933746  0.07824668    -0.12900
C2028       C  0.54641268  0.08323696  0.06942219     0.03700
C2029       C  0.52590926  0.10627017  0.04460455    -0.25100
H2030       H  0.43188990  0.12651898  0.46378042     0.08800
H2031       H  0.48422273  0.14664442  0.49635135     0.12400
H2032       H  0.94113430  0.02531483  0.02746467     0.12300
H2033       H  0.49242114  0.01290259  0.07010437     0.12100
H2034       H  0.54847531  0.03082664  0.09749152     0.12600
H2035       H  0.53491631  0.13255583  0.03785374     0.14600
C2036       C  0.57740207  0.09848725  0.58897136     0.86300
C2037       C  0.60079865  0.07393033  0.61658825    -0.53900
C2038       C  0.62673874  0.08983854  0.63428311     0.09200
C2039       C  0.62538049  0.13065503  0.62169799     0.20200
C2040       C  0.55959858  0.12656920  0.60804935    -0.54700
C2041       C  0.58395699  0.14475682  0.62414347     0.09300
C2042       C  0.60681054  0.11715890  0.56509182    -0.54200
C2043       C  0.63244842  0.13425557  0.58184666     0.09900
H2044       H  0.59888843  0.04615220  0.62070149     0.14400
H2045       H  0.64428120  0.14549072  0.63626488     0.00200
H2046       H  0.52999589  0.13342653  0.60619459     0.14700
H2047       H  0.60629865  0.11802738  0.53714545     0.14500
C2048       C  0.57306536  0.17916489  0.63800931     0.29800
C2049       C  0.57185189  0.24038290  0.66511293     0.29800
C2050       C  0.58408077  0.21104750  0.61350847    -0.06400
C2051       C  0.53300038  0.19137886  0.64959555    -0.07200
C2052       C  0.59686955  0.18028948  0.67027091    -0.07000
C2053       C  0.58308631  0.24232706  0.62700848    -0.06400
C2054       C  0.53234489  0.22304016  0.66386432    -0.07200
C2055       C  0.59414492  0.21054106  0.68474783    -0.07000
C2056       C  0.57347074  0.26715828  0.59885871    -0.32400
N2057       N  0.57405720  0.25373777  0.56865236     0.14100
C2058       C  0.57643675  0.21911609  0.57836084    -0.32400
H2059       H  0.56993902  0.20053189  0.56121390     0.16000
C2060       C  0.99526507  0.22868381  0.67342982    -0.31400
N2061       N  0.97342842  0.20268235  0.66498067     0.12800
C2062       C  0.99619977  0.18008110  0.65047052    -0.31400
C2063       C  0.59158992  0.20067616  0.71972641    -0.31700
N2064       N  0.59844821  0.16673382  0.72726293     0.13300
H2065       H  0.57823587  0.21625730  0.73694486     0.15900
C2066       C  0.60049297  0.15405252  0.69723904    -0.31700
H2067       H  0.59585424  0.12801713  0.69431370     0.15900
H2068       H  0.98666711  0.15685011  0.64146673     0.15900
H2069       H  0.56443365  0.29353842  0.60026524     0.16000
H2070       H  0.98478395  0.25041990  0.68508672     0.15900
C2071       C  0.57608490  0.31468430  0.72207279     0.86300
C2072       C  0.60644959  0.33602702  0.70251197    -0.53900
C2073       C  0.63362082  0.31719929  0.68939601     0.09200
C2074       C  0.62629067  0.27703441  0.69706500     0.20200
C2075       C  0.55952089  0.29220845  0.69678864    -0.54700
C2076       C  0.58445952  0.27175530  0.68329136     0.09300
C2077       C  0.59839757  0.28955814  0.75025502    -0.54200
C2078       C  0.62531106  0.26953742  0.73808744     0.09900
H2079       H  0.60757427  0.36362132  0.70069171     0.14400
H2080       H  0.64706882  0.26066966  0.68568981     0.00200
H2081       H  0.52972881  0.29118301  0.69173681     0.14700
H2082       H  0.59339112  0.28791131  0.77777237     0.14500
C2083       C  0.71734093  0.04627002  0.70284036     0.29800
C2084       C  0.65770712  0.06910844  0.65915559     0.29800
C2085       C  0.72525141  0.07300566  0.67272756    -0.06400
C2086       C  0.70099751  0.01767816  0.68400642    -0.07200
C2087       C  0.68277665  0.06009650  0.71952380    -0.07000
C2088       C  0.69558527  0.08724876  0.65289673    -0.06400
C2089       C  0.67018505  0.02824294  0.66087527    -0.07200
C2090       C  0.65209956  0.07063304  0.69806066    -0.07000
C2091       C  0.71093827  0.11376613  0.63094637    -0.32400
N2092       N  0.74859018  0.11075366  0.63181607     0.14100
C2093       C  0.75726811  0.08396588  0.65673341    -0.32400
H2094       H  0.78404102  0.07086009  0.66134708     0.16000
C2095       C  0.65875471  0.49709104  0.65080120    -0.31400
N2096       N  0.68153264  0.46955619  0.66589575     0.12800
C2097       C  0.70691032  0.48236105  0.68646629    -0.31400
C2098       C  0.62235321  0.07190154  0.72023652    -0.31700
N2099       N  0.63499792  0.06767043  0.75384318     0.13300
H2100       H  0.59314168  0.07541021  0.71262344     0.15900
C2101       C  0.67159371  0.05812893  0.75324177    -0.31700
H2102       H  0.68895324  0.04935552  0.77581395     0.15900
H2103       H  0.72957988  0.46688518  0.69982703     0.15900
H2104       H  0.69648957  0.13557052  0.61814265     0.16000
H2105       H  0.63675544  0.49478178  0.63193900     0.15900
C2106       C  0.82768170  0.12456636  0.56817832     0.86300
C2107       C  0.84764445  0.14439151  0.59425289    -0.53900
C2108       C  0.82415918  0.16458982  0.61064312     0.09200
C2109       C  0.78207181  0.16408256  0.59671305     0.20200
C2110       C  0.79663956  0.10570873  0.58984956    -0.54700
C2111       C  0.77342290  0.12584021  0.60534691     0.09300
C2112       C  0.80666717  0.15212010  0.54155741    -0.54200
C2113       C  0.78119364  0.17192250  0.55538160     0.09900
H2114       H  0.87660287  0.13906150  0.60241242     0.14400
H2115       H  0.76158869  0.18005885  0.60889736     0.00200
H2116       H  0.79426435  0.07819164  0.59554101     0.14700
H2117       H  0.80962585  0.15448756  0.51377686     0.14500
C2118       C  0.57215674  0.11429133  0.81147581     0.86300
C2119       C  0.56681787  0.14176618  0.77916751    -0.53900
C2120       C  0.59794626  0.14677198  0.76056908     0.09200
C2121       C  0.63219162  0.12651798  0.77615396     0.20200
C2122       C  0.58971497  0.08226183  0.79742502    -0.54700
C2123       C  0.62099659  0.08893306  0.77866540     0.09300
C2124       C  0.60471234  0.12909457  0.83263671    -0.54200
C2125       C  0.63647034  0.13634432  0.81347745     0.09900
H2126       H  0.54029882  0.15464338  0.77050269     0.14400
H2127       H  0.65652158  0.13200844  0.75932469     0.00200
H2128       H  0.57616915  0.05764145  0.79895684     0.14700
H2129       H  0.60164184  0.13608051  0.85837220     0.14500
C2130       C  0.83652306  0.19704567  0.71131101     0.29800
C2131       C  0.83405719  0.17494364  0.64688111     0.29800
C2132       C  0.81231150  0.21710632  0.68334497    -0.06400
C2133       C  0.87526262  0.19876011  0.69159614    -0.07200
C2134       C  0.82663355  0.15917695  0.71040319    -0.07000
C2135       C  0.80783871  0.20454679  0.65229702    -0.06400
C2136       C  0.87350998  0.18731244  0.65840950    -0.07200
C2137       C  0.82540751  0.14805596  0.67782151    -0.07000
C2138       C  0.79752574  0.23203650  0.62841652    -0.32400
N2139       N  0.79894344  0.26081594  0.64288698     0.14100
C2140       C  0.81159904  0.25209636  0.67530094    -0.32400
H2141       H  0.82571696  0.26935558  0.69023628     0.16000
C2142       C  0.90965394  0.18829634  0.64567336    -0.31400
N2143       N  0.93362261  0.20013546  0.66880615     0.12800
C2144       C  0.91297543  0.20685405  0.69665626    -0.31400
C2145       C  0.83033593  0.11266744  0.68345706    -0.31700
N2146       N  0.83153676  0.10122192  0.71789766     0.13300
H2147       H  0.83526242  0.09649928  0.66363269     0.15900
C2148       C  0.83334046  0.12973434  0.73389136    -0.31700
H2149       H  0.84111149  0.12883648  0.76090546     0.15900
H2150       H  0.92465520  0.21569569  0.71953191     0.15900
H2151       H  0.79727262  0.23142882  0.60152071     0.16000
H2152       H  0.91802246  0.18051665  0.62137578     0.15900
C2153       C  0.83097659  0.34357043  0.59567290     0.86300
C2154       C  0.79782365  0.36532919  0.60833273    -0.53900
C2155       C  0.76535709  0.34752417  0.61198990     0.09200
C2156       C  0.76950320  0.31041682  0.60120109     0.20200
C2157       C  0.83295424  0.31081818  0.62187461    -0.54700
C2158       C  0.80121434  0.29374455  0.62375222     0.09300
C2159       C  0.81681504  0.33106187  0.56119009    -0.54200
C2160       C  0.78451033  0.31287509  0.56467016     0.09900
H2161       H  0.80049851  0.39026023  0.61707362     0.14400
H2162       H  0.74479449  0.29393212  0.60456656     0.00200
H2163       H  0.85798008  0.30071878  0.63665866     0.14700
H2164       H  0.83291504  0.33307478  0.53779277     0.14500
C2165       C  0.79705983  0.01922104  0.77083098     0.86300
C2166       C  0.76597459  0.01430218  0.74451113    -0.53900
C2167       C  0.75042636  0.04393555  0.72796105     0.09200
C2168       C  0.76827400  0.07690810  0.73861689     0.20200
C2169       C  0.82560560  0.04183009  0.74921985    -0.54700
C2170       C  0.81028052  0.07241225  0.73297328     0.09300
C2171       C  0.77960691  0.04369566  0.79508837    -0.54200
C2172       C  0.76511660  0.07432041  0.77779949     0.09900
H2173       H  0.75623359  0.98925255  0.74066630     0.14400
H2174       H  0.75600145  0.10171428  0.72510592     0.00200
H2175       H  0.85475861  0.03501690  0.74681630     0.14700
H2176       H  0.77988151  0.03769042  0.82311029     0.14500
C2177       C  0.66829343  0.33414240  0.67095443     0.29800
C2178       C  0.73178534  0.35355505  0.63498929     0.29800
C2179       C  0.66855331  0.32880121  0.63354573    -0.06400
C2180       C  0.67774577  0.37514671  0.66702072    -0.07200
C2181       C  0.70548053  0.31587358  0.68472873    -0.07000
C2182       C  0.69886867  0.34046201  0.61521211    -0.06400
C2183       C  0.71068233  0.38428223  0.64814005    -0.07200
C2184       C  0.73716155  0.32850622  0.66941016    -0.07000
C2185       C  0.69032710  0.33978305  0.58072835    -0.32400
N2186       N  0.65741307  0.32425046  0.57840525     0.14100
C2187       C  0.64358257  0.31834518  0.61065288    -0.32400
H2188       H  0.61705664  0.30865126  0.61751733     0.16000
C2189       C  0.71326921  0.42005126  0.64410994    -0.31400
N2190       N  0.68346435  0.43440100  0.65882239     0.12800
C2191       C  0.66219441  0.40752970  0.67330022    -0.31400
C2192       C  0.76700460  0.31332634  0.69021059    -0.31700
N2193       N  0.75488276  0.28626115  0.71288945     0.13300
H2194       H  0.79573184  0.32085151  0.68781092     0.15900
C2195       C  0.71736192  0.28659379  0.70690576    -0.31700
H2196       H  0.70063711  0.26484742  0.71325821     0.15900
H2197       H  0.63748356  0.41147300  0.68776562     0.15900
H2198       H  0.70736587  0.34942089  0.55926009     0.16000
H2199       H  0.73560995  0.43462687  0.63156038     0.15900
C2200       C  0.61421729  0.31173412  0.49136188     0.86300
C2201       C  0.58305503  0.29028754  0.51117858    -0.53900
C2202       C  0.59646411  0.26992999  0.54084995     0.09200
C2203       C  0.63845785  0.27276010  0.54713514     0.20200
C2204       C  0.63088358  0.33165704  0.51938649    -0.54700
C2205       C  0.64324371  0.31112440  0.54835199     0.09300
C2206       C  0.64463601  0.28527051  0.48459002    -0.54200
C2207       C  0.65713206  0.26450229  0.51348726     0.09900
H2208       H  0.55349769  0.29311051  0.50443658     0.14400
H2209       H  0.64915172  0.25687310  0.57138037     0.00200
H2210       H  0.63164028  0.35962265  0.51712186     0.14700
H2211       H  0.65642660  0.28440230  0.45935211     0.14500
C2212       C  0.82464937  0.25208542  0.78754790     0.86300
C2213       C  0.84468058  0.22745190  0.76572254    -0.53900
C2214       C  0.82182195  0.21237736  0.74432348     0.09200
C2215       C  0.77851165  0.22357571  0.74872435     0.20200
C2216       C  0.80186370  0.27834675  0.76093178    -0.54700
C2217       C  0.77724763  0.26420272  0.74033797     0.09300
C2218       C  0.79443827  0.23111526  0.80781813    -0.54200
C2219       C  0.76948348  0.21609264  0.78864520     0.09900
H2220       H  0.87489009  0.22503234  0.76485403     0.14400
H2221       H  0.75868310  0.21144903  0.73216001     0.00200
H2222       H  0.80357382  0.30612233  0.75862458     0.14700
H2223       H  0.79259642  0.22967042  0.83544566     0.14500
C2224       C  0.75028193  0.19500271  0.53325579     0.29800
C2225       C  0.69012371  0.23914773  0.51522312     0.29800
C2226       C  0.75559964  0.23378307  0.53671306    -0.06400
C2227       C  0.73653075  0.19801401  0.49329550    -0.07200
C2228       C  0.71284643  0.18517387  0.55045432    -0.07000
C2229       C  0.72495666  0.25530952  0.52817232    -0.06400
C2230       C  0.70512987  0.22110208  0.48476784    -0.07200
C2231       C  0.68317063  0.20828604  0.54227785    -0.07000
C2232       C  0.73505457  0.28865229  0.53100206    -0.32400
N2233       N  0.77138050  0.28899517  0.54161966     0.17800
C2234       C  0.78470951  0.25565856  0.54259948    -0.32400
H2235       H  0.81341872  0.24741436  0.54908123     0.16000
C2236       C  0.69421221  0.21773156  0.95071506    -0.31400
N2237       N  0.71699036  0.19473432  0.93740426     0.12800
C2238       C  0.74324522  0.18205124  0.96289381    -0.31400
C2239       C  0.65075678  0.19052387  0.54897561    -0.31700
N2240       N  0.65886542  0.15776771  0.56337088     0.13300
H2241       H  0.62375423  0.19949316  0.53871653     0.15900
C2242       C  0.69631848  0.15331274  0.55926928    -0.31700
H2243       H  0.71086582  0.12842088  0.56232689     0.15900
H2244       H  0.76462224  0.16265468  0.95992402     0.15900
H2245       H  0.71682961  0.31115122  0.52552284     0.16000
H2246       H  0.67049822  0.23128743  0.93684137     0.15900
C2247       C  0.73475720  0.19652592  0.80461925     0.29800
C2248       C  0.67101202  0.15869460  0.81978359     0.29800
C2249       C  0.73605216  0.15869492  0.79815576    -0.06400
C2250       C  0.72311579  0.19171731  0.84429138    -0.07200
C2251       C  0.69799850  0.21137473  0.78652589    -0.07000
C2252       C  0.70516790  0.13968976  0.80720666    -0.06400
C2253       C  0.69002848  0.17266375  0.85200241    -0.07200
C2254       C  0.66653141  0.19253666  0.79381303    -0.07000
C2255       C  0.71483805  0.10532581  0.80585585    -0.32400
N2256       N  0.74993068  0.10296615  0.79383239     0.14100
C2257       C  0.76310746  0.13561860  0.78987104    -0.32400
H2258       H  0.79064463  0.14260816  0.78262352     0.16000
C2259       C  0.68540113  0.17108758  0.88790842    -0.31400
N2260       N  0.71419115  0.18718493  0.90239024     0.12800
C2261       C  0.73674512  0.19995986  0.87614642    -0.31400
C2262       C  0.63624519  0.21373335  0.78029595    -0.31700
N2263       N  0.64816653  0.24331922  0.76149938     0.13300
H2264       H  0.60747273  0.20836179  0.78581430     0.15900
C2265       C  0.68527027  0.24360049  0.77024730    -0.31700
H2266       H  0.70159502  0.26646745  0.76812211     0.15900
H2267       H  0.76087002  0.21479110  0.88037696     0.15900
H2268       H  0.69725178  0.08382023  0.81333252     0.16000
H2269       H  0.66268207  0.15904068  0.90234752     0.15900
N2270       N  0.89034326  0.51898028  0.95077436    -0.06300
N2271       N  0.88277271  0.04066992  0.97341579    -0.58400
N2272       N  0.89065999  0.47943943  0.87523841    -0.06000
N2273       N  0.39728337  0.49921696  0.84588889    -0.60500
N2274       N  0.86264515  0.49307232  0.89038512    -0.05600
N2275       N  0.85624484  0.02493666  0.87597099    -0.58400
N2276       N  0.92125003  0.52120267  0.93302235    -0.05300
N2277       N  0.44074585  0.54680467  0.94143651    -0.60900
C2278       C  0.41408173  0.05893731  0.96829324     0.95900
C2279       C  0.37946774  0.02941047  0.84858555     0.95700
N2280       N  0.97371174  0.40604328  0.90432385    -0.06500
N2281       N  0.97057019  0.37871220  0.88848120    -0.59000
N2282       N  0.99661233  0.47816515  0.93214329    -0.04600
N2283       N  0.52584358  0.48993305  0.91447141    -0.60300
N2284       N  0.00724531  0.45269125  0.95640242    -0.06500
N2285       N  0.04400097  0.45000821  0.95759508    -0.59300
N2286       N  0.96229564  0.43390419  0.88342416    -0.04200
N2287       N  0.45271189  0.42609422  0.85257323    -0.60300
Mn2288     Mn  0.94251036  0.47865168  0.90566562     1.18400
C2289       C  0.95822770  0.39136190  0.85627569     0.98000
C2290       C  0.05555972  0.47120100  0.92976893     0.98600
N2291       N  0.82543420  0.42823313  0.94446075    -0.06500
N2292       N  0.80580111  0.92079589  0.91434506    -0.62800
N2293       N  0.86214280  0.43779084  0.02149871    -0.05300
N2294       N  0.84750320  0.43376950  0.05255617    -0.63500
N2295       N  0.84592356  0.46380753  0.00162693    -0.06000
N2296       N  0.81565669  0.97426014  0.01790179    -0.63100
N2297       N  0.83976474  0.39834524  0.96017841    -0.04900
N2298       N  0.83077902  0.37343980  0.94198477    -0.63800
Mn2299     Mn  0.85244089  0.97418156  0.94636854     1.10700
C2300       C  0.81127954  0.88706288  0.91184260     0.99200
C2301       C  0.81854397  0.95707396  0.05064888     0.99300
N2302       N  0.97283083  0.40292107  0.01672941    -0.06100
N2303       N  0.99751603  0.41318782  0.03862505    -0.61400
N2304       N  0.91403268  0.35362622  0.97820713    -0.05400
N2305       N  0.89780694  0.32541774  0.97145804    -0.58200
N2306       N  0.94725766  0.35554081  0.96513421    -0.06700
N2307       N  0.95410693  0.32876821  0.94883842    -0.61000
N2308       N  0.93902752  0.40492802  0.02876752    -0.05700
N2309       N  0.94009635  0.42030272  0.05659778    -0.58200
Mn2310     Mn  0.97655247  0.40408162  0.96072104     1.20200
Mn2311     Mn  0.88808860  0.39734586  0.99817974     1.10100
Cl2312     Cl  0.91546582  0.43894880  0.95293707    -0.86100
C2313       C  0.97685466  0.42245358  0.06483979     0.96200
C2314       C  0.92304222  0.30987149  0.95298934     0.96000
C2315       C  0.85102896  0.26734032  0.81217384    -0.05400
C2316       C  0.85970357  0.30256085  0.80739088    -0.05400
C2317       C  0.87668226  0.31725288  0.83395990    -0.23500
C2318       C  0.88579267  0.29704868  0.86564226     0.18700
C2319       C  0.88072774  0.26108965  0.86982451     0.15900
C2320       C  0.86446538  0.24632345  0.84262275    -0.18600
C2321       C  0.89056076  0.24089989  0.90164455    -0.20400
C2322       C  0.90491081  0.25648644  0.92912235    -0.12900
C2323       C  0.90965478  0.29220942  0.92477877     0.03700
C2324       C  0.89973736  0.31233492  0.89326641    -0.25100
H2325       H  0.85322659  0.31930180  0.78351054     0.08800
H2326       H  0.88206296  0.34460828  0.82989320     0.12400
H2327       H  0.85965446  0.21883086  0.84614342     0.12300
H2328       H  0.88661745  0.21328364  0.90540855     0.12100
H2329       H  0.91201784  0.24084563  0.95368073     0.12600
H2330       H  0.90303028  0.34003083  0.89035058     0.14600
C2331       C  0.60455720  0.33634456  0.45854459    -0.05400
C2332       C  0.57054519  0.33602097  0.44015077    -0.05400
C2333       C  0.56036018  0.36355950  0.41448300    -0.23500
C2334       C  0.58198120  0.39315926  0.40992561     0.18700
C2335       C  0.61774094  0.39207496  0.42589082     0.15900
C2336       C  0.63015669  0.36213806  0.44732396    -0.18600
C2337       C  0.63737338  0.42270231  0.42539320    -0.20400
C2338       C  0.61792947  0.45445766  0.41711995    -0.12900
C2339       C  0.58017587  0.45510992  0.40679337     0.03700
C2340       C  0.56596476  0.42523116  0.39557474    -0.25100
H2341       H  0.55143803  0.31525061  0.44610731     0.08800
H2342       H  0.53384609  0.36314550  0.40118849     0.12400
H2343       H  0.65753605  0.36157620  0.45985651     0.12300
H2344       H  0.66515855  0.42225598  0.43703211     0.12100
H2345       H  0.13196351  0.47678250  0.92700736     0.12600
H2346       H  0.53759316  0.42625599  0.38545196     0.14600
C2347       C  0.81013266  0.98402622  0.78995332    -0.05400
C2348       C  0.84780716  0.97233544  0.79324297    -0.05400
C2349       C  0.85784472  0.94067694  0.81339200    -0.23500
C2350       C  0.83031579  0.91983059  0.82960691     0.18700
C2351       C  0.79237403  0.92908749  0.82235465     0.15900
C2352       C  0.78264172  0.96145883  0.80402380    -0.18600
C2353       C  0.76475424  0.90693410  0.83618786    -0.20400
C2354       C  0.77447874  0.87973542  0.86228441    -0.12900
C2355       C  0.81072665  0.87764117  0.87684932     0.03700
C2356       C  0.83948708  0.89247859  0.85614414    -0.25100
H2357       H  0.86991053  0.98805030  0.78208017     0.08800
H2358       H  0.88714216  0.93337026  0.81767779     0.12400
H2359       H  0.75337374  0.96951045  0.80134703     0.12300
H2360       H  0.73551337  0.91257714  0.82938717     0.12100
H2361       H  0.75216657  0.86652415  0.87642618     0.12600
H2362       H  0.86298604  0.38857315  0.86959096     0.14600
C2363       C  0.98571403  0.41396353  0.59936123    -0.05400
C2364       C  0.96525657  0.43127318  0.62255338    -0.05400
C2365       C  0.93081513  0.41784232  0.63364833    -0.23500
C2366       C  0.91959435  0.38704421  0.62213937     0.18700
C2367       C  0.94719543  0.36574211  0.60916222     0.15900
C2368       C  0.98368432  0.37784154  0.60534859    -0.18600
C2369       C  0.93631076  0.33881571  0.59160755    -0.20400
C2370       C  0.89868745  0.33527323  0.58370403    -0.12900
C2371       C  0.87059980  0.35628390  0.59600650     0.03700
C2372       C  0.88156839  0.38082765  0.61722377    -0.25100
H2373       H  0.97045541  0.45807645  0.62446745     0.08800
H2374       H  0.91121611  0.43396597  0.64545992     0.12400
H2375       H  0.00435654  0.35841989  0.09430788     0.12300
H2376       H  0.95693059  0.32269019  0.58098165     0.12100
H2377       H  0.89127704  0.31452099  0.56942618     0.12600
H2378       H  0.86091835  0.39607344  0.62863688     0.14600
C2379       C  0.53333493  0.10597508  0.82643931    -0.05400
C2380       C  0.52424973  0.10511970  0.86148136    -0.05400
C2381       C  0.48821797  0.09569407  0.87286183    -0.23500
C2382       C  0.46043665  0.08732027  0.84938693     0.18700
C2383       C  0.46882937  0.08978199  0.81409404     0.15900
C2384       C  0.50486754  0.09823223  0.80317100    -0.18600
C2385       C  0.44151804  0.08216058  0.79025670    -0.20400
C2386       C  0.90798559  0.06775986  0.80183082    -0.12900
C2387       C  0.40056449  0.06119951  0.83713974     0.03700
C2388       C  0.42547805  0.07419800  0.86046228    -0.25100
H2389       H  0.54506134  0.11074517  0.88021778     0.08800
H2390       H  0.48241792  0.09407794  0.90016282     0.12400
H2391       H  0.51106606  0.09829041  0.77608192     0.12300
H2392       H  0.94722119  0.08462655  0.76291906     0.12100
H2393       H  0.88972913  0.05831787  0.78332589     0.12600
H2394       H  0.41903279  0.07133716  0.88734386     0.14600
C2395       C  0.85123389  0.09801911  0.55250292    -0.05400
C2396       C  0.83300283  0.08689467  0.52386886    -0.05400
C2397       C  0.81173712  0.05767009  0.53020121    -0.23500
C2398       C  0.81867470  0.03515961  0.56088016     0.18700
C2399       C  0.85102319  0.03898042  0.58121801     0.15900
C2400       C  0.86795514  0.07131282  0.57685874    -0.18600
C2401       C  0.86380883  0.01068273  0.60532035    -0.20400
C2402       C  0.84720900  0.97855739  0.60439524    -0.12900
C2403       C  0.81616791  0.97663157  0.58181282     0.03700
C2404       C  0.79618479  0.00728673  0.57034547    -0.25100
H2405       H  0.82696368  0.10439289  0.50030946     0.08800
H2406       H  0.79042316  0.05269368  0.51156229     0.12400
H2407       H  0.88800488  0.07725643  0.59617327     0.12300
H2408       H  0.88850081  0.01236916  0.62144164     0.12100
H2409       H  0.86158762  0.95527070  0.61677032     0.12600
H2410       H  0.77027031  0.00599273  0.55565232     0.14600
C2411       C  0.54520578  0.33476340  0.73670017    -0.05400
C2412       C  0.53796205  0.37039796  0.72650727    -0.05400
C2413       C  0.51228398  0.38827832  0.74426688    -0.23500
C2414       C  0.49431442  0.37086700  0.77271977     0.18700
C2415       C  0.49869215  0.33455192  0.78056771     0.15900
C2416       C  0.52239927  0.31665830  0.76119087    -0.18600
C2417       C  0.48306343  0.31710367  0.81018348    -0.20400
C2418       C  0.46755382  0.33594048  0.83415169    -0.12900
C2419       C  0.46448073  0.37210299  0.82738424     0.03700
C2420       C  0.47538277  0.38935459  0.79547436    -0.25100
H2421       H  0.55208202  0.38481962  0.70527839     0.08800
H2422       H  0.50843753  0.41597722  0.73724365     0.12400
H2423       H  0.52597102  0.28883706  0.76759303     0.12300
H2424       H  0.48652099  0.28930430  0.81665018     0.12100
H2425       H  0.96093600  0.32222521  0.85918692     0.12600
H2426       H  0.47366021  0.41733681  0.79041628     0.14600
C2427       C  0.43254659  0.07582350  0.49399111    -0.05400
C2428       C  0.44234044  0.10878867  0.98788620    -0.05400
C2429       C  0.47448987  0.12074290  0.50373965    -0.23500
C2430       C  0.49390052  0.09740700  0.52891998     0.18700
C2431       C  0.48082477  0.06380773  0.53844797     0.15900
C2432       C  0.44927043  0.05360452  0.52162500    -0.18600
C2433       C  0.50084411  0.04032668  0.56298924    -0.20400
C2434       C  0.53357570  0.05017895  0.57834051    -0.12900
C2435       C  0.54669221  0.08370751  0.56915663     0.03700
C2436       C  0.52673264  0.10688697  0.54400513    -0.25100
H2437       H  0.42934591  0.12582520  0.96635439     0.08800
H2438       H  0.48188575  0.14610823  0.99844621     0.12400
H2439       H  0.94064237  0.02702201  0.52706281     0.12300
H2440       H  0.49114342  0.01439913  0.57035617     0.12100
H2441       H  0.54732570  0.03174042  0.59806037     0.12600
H2442       H  0.53621519  0.13299520  0.53714563     0.14600
C2443       C  0.57956706  0.60026329  0.08791340     0.86300
C2444       C  0.60223070  0.57558592  0.11571664    -0.53900
C2445       C  0.62824405  0.59131970  0.13348588     0.09200
C2446       C  0.62737329  0.63207580  0.12115865     0.20200
C2447       C  0.56165449  0.62855991  0.10646484    -0.54700
C2448       C  0.58585491  0.64636048  0.12314674     0.09300
C2449       C  0.60971241  0.61841112  0.06443839    -0.54200
C2450       C  0.63506239  0.63548055  0.08146885     0.09900
H2451       H  0.59979948  0.54782941  0.11945329     0.14400
H2452       H  0.64650363  0.64658364  0.13590434     0.00200
H2453       H  0.53211869  0.63570176  0.10401792     0.14700
H2454       H  0.61014749  0.61880874  0.03657196     0.14500
C2455       C  0.57467679  0.68056339  0.13717144     0.29800
C2456       C  0.57335823  0.74172445  0.16439389     0.29800
C2457       C  0.58607188  0.71232308  0.11289916    -0.06400
C2458       C  0.53453118  0.69284860  0.14844435    -0.07200
C2459       C  0.59785224  0.68134850  0.16975984    -0.07000
C2460       C  0.58500445  0.74360952  0.12630819    -0.06400
C2461       C  0.53376506  0.72445610  0.16284502    -0.07200
C2462       C  0.59537064  0.71166830  0.18423432    -0.07000
C2463       C  0.57595122  0.76834487  0.09783769    -0.32400
N2464       N  0.57686400  0.75468963  0.06771533     0.14100
C2465       C  0.57895930  0.72014077  0.07767606    -0.32400
H2466       H  0.57286545  0.70142030  0.06056161     0.16000
C2467       C  0.99668865  0.72962310  0.17281178    -0.31400
N2468       N  0.97504168  0.70340637  0.16445866     0.12800
C2469       C  0.99791481  0.68114956  0.14960986    -0.31400
C2470       C  0.59247116  0.70182028  0.21923115    -0.31700
N2471       N  0.59822657  0.66771670  0.22669961     0.13300
H2472       H  0.57951498  0.71765373  0.23643090     0.15900
C2473       C  0.60008107  0.65501365  0.19671119    -0.31700
H2474       H  0.59381884  0.62924828  0.19375803     0.15900
H2475       H  0.98864148  0.65774693  0.14077239     0.15900
H2476       H  0.56677519  0.79473962  0.09895980     0.16000
H2477       H  0.98619166  0.75110239  0.18486862     0.15900
C2478       C  0.57827955  0.81690948  0.22074573     0.86300
C2479       C  0.60929240  0.83724384  0.20126845    -0.53900
C2480       C  0.63602052  0.81782279  0.18860219     0.09200
C2481       C  0.62791467  0.77783944  0.19674103     0.20200
C2482       C  0.56137994  0.79427043  0.19563022    -0.54700
C2483       C  0.58608772  0.77306552  0.18268936     0.09300
C2484       C  0.59974403  0.79153823  0.24943408    -0.54200
C2485       C  0.62647389  0.77078316  0.23778466     0.09900
H2486       H  0.61142338  0.86469386  0.19914676     0.14400
H2487       H  0.64847885  0.76098427  0.18573766     0.00200
H2488       H  0.53158470  0.79372830  0.19026641     0.14700
H2489       H  0.59428973  0.79034831  0.27683059     0.14500
C2490       C  0.71836304  0.54678078  0.20121155     0.29800
C2491       C  0.65899320  0.57047434  0.15804838     0.29800
C2492       C  0.72721587  0.57125420  0.16950826    -0.06400
C2493       C  0.69941714  0.51797856  0.18463601    -0.07200
C2494       C  0.68549818  0.56374263  0.21770636    -0.07000
C2495       C  0.69772699  0.58624315  0.14988486    -0.06400
C2496       C  0.66874856  0.52906709  0.16159793    -0.07200
C2497       C  0.65477067  0.57464462  0.19637772    -0.07000
C2498       C  0.71351454  0.61315003  0.12879676    -0.32400
N2499       N  0.75118330  0.60943502  0.12952064     0.14100
C2500       C  0.75954332  0.58236653  0.15421423    -0.32400
H2501       H  0.78647429  0.56976103  0.15962561     0.16000
C2502       C  0.66030041  0.99748247  0.14808711    -0.31400
N2503       N  0.68404884  0.97033636  0.16262282     0.12800
C2504       C  0.70844933  0.98341353  0.18395644    -0.31400
C2505       C  0.62489644  0.57432100  0.21853938    -0.31700
N2506       N  0.63720644  0.56934095  0.25215583     0.13300
H2507       H  0.59565171  0.57620443  0.21087222     0.15900
C2508       C  0.67386062  0.56025413  0.25141581    -0.31700
H2509       H  0.69065546  0.54964026  0.27384615     0.15900
H2510       H  0.73096259  0.96826009  0.19799692     0.15900
H2511       H  0.69946752  0.63619581  0.11803856     0.16000
H2512       H  0.63813481  0.99482633  0.12948248     0.15900
C2513       C  0.83146067  0.62485370  0.06706923     0.86300
C2514       C  0.85074057  0.64440357  0.09364772    -0.53900
C2515       C  0.82678042  0.66394319  0.11016037     0.09200
C2516       C  0.78487376  0.66330937  0.09581673     0.20200
C2517       C  0.80027104  0.60537150  0.08818830    -0.54700
C2518       C  0.77653980  0.62503077  0.10375131     0.09300
C2519       C  0.81029799  0.65248243  0.04061466    -0.54200
C2520       C  0.78436640  0.67171374  0.05457088     0.09900
H2521       H  0.87966863  0.63926579  0.10200571     0.14400
H2522       H  0.76403983  0.67883331  0.10810073     0.00200
H2523       H  0.79799251  0.57787018  0.09357856     0.14700
H2524       H  0.81345329  0.65529605  0.01283994     0.14500
C2525       C  0.57357042  0.61396282  0.31066780     0.86300
C2526       C  0.56741753  0.64164597  0.27862462    -0.53900
C2527       C  0.59832251  0.64768010  0.25998672     0.09200
C2528       C  0.63302273  0.62786791  0.27507825     0.20200
C2529       C  0.59188110  0.58246510  0.29622129    -0.54700
C2530       C  0.62280840  0.59005245  0.27725424     0.09300
C2531       C  0.60581876  0.62906955  0.33190676    -0.54200
C2532       C  0.63728812  0.63710111  0.31259924     0.09900
H2533       H  0.54050819  0.65381785  0.27011079     0.14400
H2534       H  0.65709381  0.63407809  0.25809728     0.00200
H2535       H  0.57904752  0.55751705  0.29763950     0.14700
H2536       H  0.60288413  0.63533899  0.35792588     0.14500
C2537       C  0.83812222  0.69551024  0.21111551     0.29800
C2538       C  0.83624216  0.67385079  0.14656722     0.29800
C2539       C  0.81369447  0.71534403  0.18321994    -0.06400
C2540       C  0.87694177  0.69788092  0.19146170    -0.07200
C2541       C  0.82887342  0.65750893  0.21001699    -0.07000
C2542       C  0.80950209  0.70300983  0.15207422    -0.06400
C2543       C  0.87543294  0.68665399  0.15819376    -0.07200
C2544       C  0.82792347  0.64658988  0.17734995    -0.07000
C2545       C  0.79899772  0.73061142  0.12834899    -0.32400
N2546       N  0.80015063  0.75925709  0.14300130     0.14100
C2547       C  0.81281101  0.75030104  0.17535779    -0.32400
H2548       H  0.82719217  0.76739509  0.19028925     0.16000
C2549       C  0.91151162  0.68828870  0.14536484    -0.31400
N2550       N  0.93529771  0.70031497  0.16851062     0.12800
C2551       C  0.91455424  0.70647032  0.19651506    -0.31400
C2552       C  0.83292525  0.61119112  0.18281988    -0.31700
N2553       N  0.83394847  0.59955039  0.21724993     0.13300
H2554       H  0.83785054  0.59512653  0.16290665     0.15900
C2555       C  0.83564830  0.62798638  0.23339994    -0.31700
H2556       H  0.84232101  0.62695718  0.26067739     0.15900
H2557       H  0.92609386  0.71529559  0.21945467     0.15900
H2558       H  0.79891195  0.73028520  0.10127343     0.16000
H2559       H  0.91997988  0.68086297  0.12094924     0.15900
C2560       C  0.83446873  0.84179583  0.09760420     0.86300
C2561       C  0.80103798  0.86382475  0.10929262    -0.53900
C2562       C  0.76829915  0.84653033  0.11178371     0.09200
C2563       C  0.77243986  0.80944900  0.10086060     0.20200
C2564       C  0.83521178  0.80890688  0.12348277    -0.54700
C2565       C  0.80327597  0.79220105  0.12415077     0.09300
C2566       C  0.82150168  0.82962114  0.06254342    -0.54200
C2567       C  0.78870558  0.81195604  0.06483389     0.09900
H2568       H  0.80347866  0.88861592  0.11834759     0.14400
H2569       H  0.74750478  0.79321097  0.10334751     0.00200
H2570       H  0.85963139  0.79842836  0.13899121     0.14700
H2571       H  0.83857680  0.83147476  0.03976317     0.14500
C2572       C  0.79661402  0.51865123  0.26991871     0.86300
C2573       C  0.76612973  0.51406446  0.24302744    -0.53900
C2574       C  0.75159550  0.54387334  0.22594315     0.09200
C2575       C  0.76980176  0.57662365  0.23656244     0.20200
C2576       C  0.82615767  0.54048695  0.24880996    -0.54700
C2577       C  0.81183242  0.57121348  0.23194916     0.09300
C2578       C  0.77893815  0.54374918  0.29347100    -0.54200
C2579       C  0.76548677  0.57453275  0.27561686     0.09900
H2580       H  0.75584925  0.48916319  0.23942504     0.14400
H2581       H  0.75828674  0.60146764  0.22244319     0.00200
H2582       H  0.85516721  0.53297023  0.24696631     0.14700
H2583       H  0.77817758  0.53794470  0.32147008     0.14500
C2584       C  0.67081196  0.83437959  0.17016297     0.29800
C2585       C  0.73462413  0.85288574  0.13450145     0.29800
C2586       C  0.67139684  0.82823068  0.13304005    -0.06400
C2587       C  0.68033456  0.87548585  0.16543961    -0.07200
C2588       C  0.70775244  0.81617722  0.18458572    -0.07000
C2589       C  0.70198114  0.83937522  0.11485884    -0.06400
C2590       C  0.71345312  0.88416493  0.14671960    -0.07200
C2591       C  0.73963257  0.82841400  0.16930915    -0.07000
C2592       C  0.69342404  0.83920090  0.08035182    -0.32400
N2593       N  0.66015997  0.82442645  0.07780777     0.14100
C2594       C  0.64604865  0.81872761  0.10994272    -0.32400
H2595       H  0.61892305  0.81034010  0.11651091     0.16000
C2596       C  0.71612766  0.92003941  0.14203954    -0.31400
N2597       N  0.68616418  0.93488825  0.15615718     0.12800
C2598       C  0.66473354  0.90821196  0.17084932    -0.31400
C2599       C  0.76927800  0.81245987  0.18974374    -0.31700
N2600       N  0.75672950  0.78545316  0.21218801     0.13300
H2601       H  0.79817074  0.81942126  0.18726551     0.15900
C2602       C  0.71917497  0.78646103  0.20640562    -0.31700
H2603       H  0.70207212  0.76497535  0.21283790     0.15900
H2604       H  0.63984663  0.91257193  0.18490801     0.15900
H2605       H  0.71056109  0.84887739  0.05898048     0.16000
H2606       H  0.73864272  0.93431296  0.12943111     0.15900
C2607       C  0.61791632  0.81203340  0.99046846     0.86300
C2608       C  0.58650605  0.79064991  0.00997876    -0.53900
C2609       C  0.59958047  0.77038164  0.03986629     0.09200
C2610       C  0.64157469  0.77305000  0.04641818     0.20200
C2611       C  0.63415480  0.83190750  0.01873218    -0.54700
C2612       C  0.64622821  0.81135636  0.04771564     0.09300
C2613       C  0.64843131  0.78560644  0.98393053    -0.54200
C2614       C  0.66068707  0.76484313  0.01288349     0.09900
H2615       H  0.55701736  0.79362354  0.00295832     0.14400
H2616       H  0.65203469  0.75720484  0.07076904     0.00200
H2617       H  0.63480605  0.85986899  0.01664765     0.14700
H2618       H  0.66045704  0.78471424  0.95878671     0.14500
C2619       C  0.82613169  0.75097119  0.28668855     0.86300
C2620       C  0.84597171  0.72593127  0.26527791    -0.53900
C2621       C  0.82307498  0.71084790  0.24400532     0.09200
C2622       C  0.77976695  0.72259040  0.24810402     0.20200
C2623       C  0.80368579  0.77723641  0.25994536    -0.54700
C2624       C  0.77886365  0.76319750  0.23956742     0.09300
C2625       C  0.79567174  0.73051617  0.30707940    -0.54200
C2626       C  0.77057184  0.71563423  0.28796354     0.09900
H2627       H  0.87617197  0.72325584  0.26453092     0.14400
H2628       H  0.75980833  0.71050643  0.23162231     0.00200
H2629       H  0.80560404  0.80499635  0.25744865     0.14700
H2630       H  0.79372209  0.72943951  0.33466234     0.14500
C2631       C  0.75347976  0.69486098  0.03261365     0.29800
C2632       C  0.69368186  0.73941614  0.01464097     0.29800
C2633       C  0.75931910  0.73363601  0.03571238    -0.06400
C2634       C  0.73944256  0.69760627  0.99281838    -0.07200
C2635       C  0.71610950  0.68548579  0.05010859    -0.07000
C2636       C  0.72889329  0.75543041  0.02714412    -0.06400
C2637       C  0.70817502  0.72083798  0.98426912    -0.07200
C2638       C  0.68668280  0.70888800  0.04204383    -0.07000
C2639       C  0.73938184  0.78861365  0.03026765    -0.32400
N2640       N  0.77569732  0.78856339  0.04119374     0.17800
C2641       C  0.78862781  0.75510110  0.04215170    -0.32400
H2642       H  0.81706609  0.74642748  0.04928544     0.16000
C2643       C  0.69641825  0.71690556  0.45056392    -0.31400
N2644       N  0.71902409  0.69391054  0.43701818     0.12800
C2645       C  0.74557318  0.68129281  0.46226783    -0.31400
C2646       C  0.65408963  0.69152373  0.04898325    -0.31700
N2647       N  0.66184586  0.65872077  0.06327924     0.13300
H2648       H  0.62714160  0.70073878  0.03882264     0.15900
C2649       C  0.69916994  0.65381904  0.05887344    -0.31700
H2650       H  0.71329522  0.62876001  0.06140078     0.15900
H2651       H  0.76696141  0.66197460  0.45908345     0.15900
H2652       H  0.72129266  0.81122845  0.02508842     0.16000
H2653       H  0.67260453  0.73051058  0.43690201     0.15900
C2654       C  0.73568391  0.69655062  0.30387612     0.29800
C2655       C  0.67189438  0.65910591  0.31916964     0.29800
C2656       C  0.73651917  0.65897411  0.29670673    -0.06400
C2657       C  0.72455315  0.69127593  0.34373282    -0.07200
C2658       C  0.69885135  0.71203625  0.28630234    -0.07000
C2659       C  0.70578767  0.64000851  0.30609766    -0.06400
C2660       C  0.69135559  0.67245096  0.35149959    -0.07200
C2661       C  0.66730832  0.69337972  0.29366110    -0.07000
C2662       C  0.71530256  0.60566898  0.30415204    -0.32400
N2663       N  0.74995997  0.60348806  0.29105642     0.14100
C2664       C  0.76306610  0.63615309  0.28701115    -0.32400
H2665       H  0.79018613  0.64335311  0.27859600     0.16000
C2666       C  0.68693432  0.67069504  0.38746555    -0.31400
N2667       N  0.71597694  0.68647125  0.40195499     0.12800
C2668       C  0.73850691  0.69916270  0.37564447    -0.31400
C2669       C  0.63704297  0.71479974  0.28021712    -0.31700
N2670       N  0.64905069  0.74449598  0.26157635     0.13300
H2671       H  0.60823624  0.70938179  0.28554119     0.15900
C2672       C  0.68628314  0.74440056  0.27007281    -0.31700
H2673       H  0.70290013  0.76708847  0.26766054     0.15900
H2674       H  0.76279568  0.71378295  0.37986364     0.15900
H2675       H  0.69789739  0.58408822  0.31193176     0.16000
H2676       H  0.66412890  0.65882433  0.40191878     0.15900
N2677       N  0.88670458  0.01763411  0.45264250    -0.06300
N2678       N  0.88734441  0.54287668  0.47157400    -0.58400
N2679       N  0.88938153  0.97897547  0.37651179    -0.06000
N2680       N  0.39628889  0.99881048  0.34739082    -0.60500
N2681       N  0.86078569  0.99202942  0.39135913    -0.05600
N2682       N  0.85666928  0.52791366  0.37443253    -0.58400
N2683       N  0.91797695  0.02050782  0.43553201    -0.05300
N2684       N  0.43666028  0.04637374  0.44460379    -0.60900
C2685       C  0.41887681  0.56055900  0.46502942     0.95900
C2686       C  0.37889830  0.53138686  0.34638995     0.95700
N2687       N  0.97281029  0.90714310  0.40420427    -0.06500
N2688       N  0.97116992  0.88071348  0.38684367    -0.59000
N2689       N  0.99414741  0.97828849  0.43516832    -0.04600
N2690       N  0.52408565  0.99061553  0.41896057    -0.60300
N2691       N  0.00414970  0.95245633  0.45922861    -0.06500
N2692       N  0.04083446  0.95036846  0.46216131    -0.59300
N2693       N  0.96193334  0.93564282  0.38407688    -0.04200
N2694       N  0.45431645  0.92936195  0.35238787    -0.60300
Mn2695     Mn  0.94066776  0.97890275  0.40756470     1.18400
C2696       C  0.96015664  0.89478449  0.35460706     0.98000
C2697       C  0.05332212  0.97195792  0.43509312     0.98600
N2698       N  0.82396491  0.92596083  0.44425776    -0.06500
N2699       N  0.80347609  0.42400393  0.41548416    -0.62800
N2700       N  0.85980842  0.93425059  0.52192659    -0.05300
N2701       N  0.84702660  0.93075848  0.55371287    -0.63500
N2702       N  0.84400259  0.96098416  0.50276208    -0.06000
N2703       N  0.81411393  0.47553489  0.51495895    -0.63100
N2704       N  0.83871892  0.89598538  0.45938149    -0.04900
N2705       N  0.83099383  0.87160189  0.44009086    -0.63800
Mn2706     Mn  0.85305846  0.47760801  0.44481886     1.10700
C2707       C  0.80759399  0.38989823  0.41401314     0.99200
C2708       C  0.81685219  0.45889702  0.54791598     0.99300
N2709       N  0.97106686  0.90032051  0.51680774    -0.06100
N2710       N  0.99583151  0.91118408  0.53820161    -0.61400
N2711       N  0.91320805  0.85180670  0.47716774    -0.05400
N2712       N  0.89788591  0.82308724  0.47074224    -0.58200
N2713       N  0.94613741  0.85471250  0.46361283    -0.06700
N2714       N  0.95375032  0.82813638  0.44730063    -0.61000
N2715       N  0.93741589  0.90142190  0.52938668    -0.05700
N2716       N  0.93868610  0.91628504  0.55758328    -0.58200
Mn2717     Mn  0.97475283  0.90339194  0.46087360     1.20200
Mn2718     Mn  0.88651818  0.89457435  0.49803043     1.10100
Cl2719     Cl  0.91354417  0.93765317  0.45367342    -0.86100
C2720       C  0.97553539  0.91994651  0.56473609     0.96200
C2721       C  0.92339163  0.80833148  0.45191415     0.96000
C2722       C  0.85261660  0.76614701  0.31101947    -0.05400
C2723       C  0.86126057  0.80136081  0.30623740    -0.05400
C2724       C  0.87786600  0.81603102  0.33293345    -0.23500
C2725       C  0.88682814  0.79571992  0.36456967     0.18700
C2726       C  0.88189539  0.75973691  0.36864353     0.15900
C2727       C  0.86598218  0.74502827  0.34135077    -0.18600
C2728       C  0.89135127  0.73947459  0.40048355    -0.20400
C2729       C  0.90536234  0.75501140  0.42808297    -0.12900
C2730       C  0.91019462  0.79070794  0.42374298     0.03700
C2731       C  0.90048585  0.81093346  0.39226690    -0.25100
H2732       H  0.85495075  0.81813539  0.28234832     0.08800
H2733       H  0.88303331  0.84343330  0.32902229     0.12400
H2734       H  0.86115736  0.71753364  0.34476822     0.12300
H2735       H  0.88737186  0.71186235  0.40415770     0.12100
H2736       H  0.91220936  0.73936295  0.45269320     0.12600
H2737       H  0.90360464  0.83867419  0.38946046     0.14600
C2738       C  0.60877585  0.83680903  0.95768860    -0.05400
C2739       C  0.57499366  0.83681394  0.93889948    -0.05400
C2740       C  0.56452017  0.86536982  0.91451528    -0.23500
C2741       C  0.58529712  0.89547974  0.91229064     0.18700
C2742       C  0.62098725  0.89406396  0.92844474     0.15900
C2743       C  0.63415492  0.86311756  0.94758635    -0.18600
C2744       C  0.63934987  0.92482946  0.93126141    -0.20400
C2745       C  0.61869695  0.95612855  0.92605023    -0.12900
C2746       C  0.58123647  0.95663433  0.91482423     0.03700
C2747       C  0.56817295  0.92779839  0.90076622    -0.25100
H2748       H  0.55616823  0.81567002  0.94386469     0.08800
H2749       H  0.53810180  0.86534081  0.90096142     0.12400
H2750       H  0.66151093  0.86222318  0.96022275     0.12300
H2751       H  0.66691294  0.92414623  0.94340345     0.12100
H2752       H  0.12963625  0.97743481  0.43529483     0.12600
H2753       H  0.53979810  0.92876904  0.89060694     0.14600
C2754       C  0.80848881  0.48335133  0.28958005    -0.05400
C2755       C  0.84584568  0.47087632  0.29346783    -0.05400
C2756       C  0.85496177  0.43949103  0.31440602    -0.23500
C2757       C  0.82683307  0.41968424  0.33089927     0.18700
C2758       C  0.78912908  0.42946462  0.32301528     0.15900
C2759       C  0.78027693  0.46154527  0.30359937    -0.18600
C2760       C  0.76091297  0.40839095  0.33752380    -0.20400
C2761       C  0.76985776  0.38220071  0.36487298    -0.12900
C2762       C  0.80614556  0.37969868  0.37937729     0.03700
C2763       C  0.83527928  0.39309268  0.35832890    -0.25100
H2764       H  0.86844617  0.48580224  0.28215434     0.08800
H2765       H  0.88404424  0.43166178  0.31911567     0.12400
H2766       H  0.75119552  0.47011606  0.30027624     0.12300
H2767       H  0.73182046  0.41438943  0.33034542     0.12100
H2768       H  0.74718212  0.37018244  0.37949699     0.12600
H2769       H  0.86401750  0.88934435  0.36750598     0.14600
C2770       C  0.98522229  0.91478377  0.10128143    -0.05400
C2771       C  0.96440848  0.93272253  0.12369391    -0.05400
C2772       C  0.93114753  0.91818886  0.13651575    -0.23500
C2773       C  0.92129830  0.88626148  0.12666394     0.18700
C2774       C  0.94982238  0.86513156  0.11476243     0.15900
C2775       C  0.98551793  0.87871503  0.10981709    -0.18600
C2776       C  0.94018483  0.83714991  0.09819029    -0.20400
C2777       C  0.90296007  0.83298931  0.08917690    -0.12900
C2778       C  0.87405596  0.85423982  0.09980963     0.03700
C2779       C  0.88367971  0.87926993  0.12096472    -0.25100
H2780       H  0.96819385  0.96006327  0.12383294     0.08800
H2781       H  0.91105858  0.93415454  0.14791605     0.12400
H2782       H  0.00756994  0.85799507  0.59553820     0.12300
H2783       H  0.96153310  0.82101254  0.08857180     0.12100
H2784       H  0.89642146  0.81182998  0.07513113     0.12600
H2785       H  0.86239062  0.89469960  0.13128071     0.14600
C2786       C  0.53490995  0.60496793  0.32543010    -0.05400
C2787       C  0.52430148  0.60687187  0.35967404    -0.05400
C2788       C  0.48772915  0.59844917  0.37029975    -0.23500
C2789       C  0.46097759  0.58830388  0.34682505     0.18700
C2790       C  0.47112141  0.58778610  0.31224548     0.15900
C2791       C  0.50760974  0.59524828  0.30217365    -0.18600
C2792       C  0.44496173  0.57864221  0.28822746    -0.20400
C2793       C  0.91060733  0.56584351  0.29919520    -0.12900
C2794       C  0.40131690  0.56209998  0.33415865     0.03700
C2795       C  0.42525302  0.57651842  0.35731664    -0.25100
H2796       H  0.54413328  0.61441217  0.37829345     0.08800
H2797       H  0.48060807  0.59928817  0.39700900     0.12400
H2798       H  0.51496930  0.59355816  0.27562398     0.12300
H2799       H  0.95207416  0.57874513  0.26136127     0.12100
H2800       H  0.89324823  0.55513116  0.28088890     0.12600
H2801       H  0.41737675  0.57589444  0.38379002     0.14600
C2802       C  0.85629211  0.59923402  0.05130124    -0.05400
C2803       C  0.83998415  0.58920912  0.02126811    -0.05400
C2804       C  0.81775404  0.56050938  0.02571645    -0.23500
C2805       C  0.82222954  0.53753411  0.05642410     0.18700
C2806       C  0.85349929  0.54003556  0.07859430     0.15900
C2807       C  0.87166261  0.57173762  0.07553706    -0.18600
C2808       C  0.86306704  0.51169163  0.10390823    -0.20400
C2809       C  0.84445262  0.48058291  0.10281395    -0.12900
C2810       C  0.81471411  0.47980339  0.07850847     0.03700
C2811       C  0.79739788  0.51135969  0.06521795    -0.25100
H2812       H  0.83591727  0.60732430  0.99781336     0.08800
H2813       H  0.79730650  0.55653332  0.00590900     0.12400
H2814       H  0.89053914  0.57688885  0.09613458     0.12300
H2815       H  0.88662506  0.51250034  0.12162207     0.12100
H2816       H  0.85643589  0.45686158  0.11678087     0.12600
H2817       H  0.77209876  0.51133411  0.04934595     0.14600
C2818       C  0.54806252  0.83842785  0.23477182    -0.05400
C2819       C  0.54406185  0.87469455  0.22629896    -0.05400
C2820       C  0.51965793  0.89343714  0.24446775    -0.23500
C2821       C  0.49927463  0.87624774  0.27136684     0.18700
C2822       C  0.50015461  0.83971663  0.27720662     0.15900
C2823       C  0.52315696  0.82116744  0.25774899    -0.18600
C2824       C  0.48167014  0.82224906  0.30514278    -0.20400
C2825       C  0.46667522  0.84076315  0.32961369    -0.12900
C2826       C  0.46703135  0.87691093  0.32493138     0.03700
C2827       C  0.48109813  0.89476771  0.29458009    -0.25100
H2828       H  0.55970233  0.88913244  0.20621010     0.08800
H2829       H  0.51852071  0.92139175  0.23892656     0.12400
H2830       H  0.52453386  0.79316818  0.26302941     0.12300
H2831       H  0.48229491  0.79426495  0.31004070     0.12100
H2832       H  0.95744901  0.82652236  0.35354325     0.12600
H2833       H  0.48208470  0.92271979  0.29122294     0.14600
C2834       C  0.43782351  0.57864057  0.98945827    -0.05400
C2835       C  0.45455952  0.60886819  0.47847670    -0.05400
C2836       C  0.48480341  0.62035918  0.99537396    -0.23500
C2837       C  0.49958577  0.59896082  0.02454185     0.18700
C2838       C  0.48158532  0.56850414  0.03791339     0.15900
C2839       C  0.44980625  0.55907278  0.02077109    -0.18600
C2840       C  0.49699768  0.54705999  0.06682938    -0.20400
C2841       C  0.53039939  0.55558758  0.08210221    -0.12900
C2842       C  0.54894905  0.58547298  0.06827291     0.03700
C2843       C  0.53272375  0.60719577  0.03983335    -0.25100
H2844       H  0.44580936  0.62369693  0.45389487     0.08800
H2845       H  0.49917418  0.64233571  0.48577045     0.12400
H2846       H  0.93749614  0.53438382  0.02928490     0.12300
H2847       H  0.48322216  0.52382406  0.07762120     0.12100
H2848       H  0.54052587  0.53949761  0.10541370     0.12600
H2849       H  0.54530641  0.63144324  0.03024719     0.14600
C2850       C  0.58000588  0.59884621  0.58865229     0.86300
C2851       C  0.60266772  0.57439980  0.61666405    -0.53900
C2852       C  0.62870963  0.59034547  0.63425239     0.09200
C2853       C  0.62781124  0.63101856  0.62155784     0.20200
C2854       C  0.56209472  0.62735896  0.60694154    -0.54700
C2855       C  0.58629484  0.64530635  0.62347806     0.09300
C2856       C  0.61018573  0.61678323  0.56505893    -0.54200
C2857       C  0.63549080  0.63406198  0.58189449     0.09900
H2858       H  0.60014293  0.54665223  0.62068533     0.14400
H2859       H  0.64695237  0.64568438  0.63612467     0.00200
H2860       H  0.53254972  0.63446339  0.60448747     0.14700
H2861       H  0.61067850  0.61690176  0.53723038     0.14500
C2862       C  0.57514075  0.67954296  0.63747079     0.29800
C2863       C  0.57402952  0.74081784  0.66453437     0.29800
C2864       C  0.58655569  0.71122373  0.61313883    -0.06400
C2865       C  0.53503952  0.69194884  0.64875113    -0.07200
C2866       C  0.59839396  0.68038700  0.67000210    -0.07000
C2867       C  0.58557369  0.74256533  0.62647180    -0.06400
C2868       C  0.53439113  0.72360268  0.66307408    -0.07200
C2869       C  0.59607927  0.71079316  0.68436199    -0.07000
C2870       C  0.57638033  0.76723469  0.59802462    -0.32400
N2871       N  0.57717756  0.75348835  0.56797593     0.14100
C2872       C  0.57929483  0.71895891  0.57795536    -0.32400
H2873       H  0.57307697  0.70021682  0.56089781     0.16000
C2874       C  0.99731567  0.72901650  0.67295335    -0.31400
N2875       N  0.97553163  0.70288920  0.66460006     0.12800
C2876       C  0.99834271  0.68046225  0.64989754    -0.31400
C2877       C  0.59329444  0.70108497  0.71936275    -0.31700
N2878       N  0.59896130  0.66698910  0.72695105     0.13300
H2879       H  0.58032655  0.71699424  0.73648027     0.15900
C2880       C  0.60060865  0.65413244  0.69703133    -0.31700
H2881       H  0.59413727  0.62837304  0.69420472     0.15900
H2882       H  0.98894973  0.65712399  0.64100884     0.15900
H2883       H  0.56753586  0.79373149  0.59909797     0.16000
H2884       H  0.98688014  0.75063371  0.68483340     0.15900
C2885       C  0.57876738  0.81629786  0.72054213     0.86300
C2886       C  0.60986421  0.83657968  0.70109779    -0.53900
C2887       C  0.63670124  0.81712150  0.68861238     0.09200
C2888       C  0.62855212  0.77714817  0.69680663     0.20200
C2889       C  0.56197972  0.79356592  0.69546639    -0.54700
C2890       C  0.58674911  0.77228889  0.68267896     0.09300
C2891       C  0.60015310  0.79101200  0.74933651    -0.54200
C2892       C  0.62695148  0.77025417  0.73781540     0.09900
H2893       H  0.61195246  0.86403795  0.69884811     0.14400
H2894       H  0.64921081  0.76024899  0.68597200     0.00200
H2895       H  0.53220253  0.79301100  0.69003486     0.14700
H2896       H  0.59462055  0.78989181  0.77671178     0.14500
C2897       C  0.71892567  0.54641391  0.70224534     0.29800
C2898       C  0.65952689  0.56979899  0.65897837     0.29800
C2899       C  0.72776098  0.57080106  0.67045002    -0.06400
C2900       C  0.70003391  0.51749459  0.68582349    -0.07200
C2901       C  0.68600539  0.56341631  0.71865873    -0.07000
C2902       C  0.69824277  0.58562677  0.65074589    -0.06400
C2903       C  0.66935891  0.52842979  0.66276187    -0.07200
C2904       C  0.65524973  0.57417052  0.69727004    -0.07000
C2905       C  0.71401692  0.61229071  0.62930821    -0.32400
N2906       N  0.75168594  0.60850603  0.62994010     0.14100
C2907       C  0.76007735  0.58169584  0.65492035    -0.32400
H2908       H  0.78700515  0.56911087  0.66038422     0.16000
C2909       C  0.66091912  0.99675517  0.64825596    -0.31400
N2910       N  0.68475957  0.96965319  0.66274302     0.12800
C2911       C  0.70935004  0.98283974  0.68380511    -0.31400
C2912       C  0.62531059  0.57359999  0.71940116    -0.31700
N2913       N  0.63752542  0.56863915  0.75304854     0.13300
H2914       H  0.59607945  0.57532913  0.71167888     0.15900
C2915       C  0.67423460  0.55973017  0.75233965    -0.31700
H2916       H  0.69100225  0.54908440  0.77478193     0.15900
H2917       H  0.73197700  0.96771305  0.69766591     0.15900
H2918       H  0.69995808  0.63525009  0.61831616     0.16000
H2919       H  0.63860001  0.99402276  0.62982922     0.15900
C2920       C  0.83192778  0.62392905  0.56727242     0.86300
C2921       C  0.85121166  0.64344946  0.59387343    -0.53900
C2922       C  0.82724784  0.66295620  0.61043259     0.09200
C2923       C  0.78528601  0.66227711  0.59608069     0.20200
C2924       C  0.80076368  0.60435740  0.58847084    -0.54700
C2925       C  0.77702328  0.62401218  0.60407662     0.09300
C2926       C  0.81067471  0.65155686  0.54088099    -0.54200
C2927       C  0.78466924  0.67063793  0.55481925     0.09900
H2928       H  0.88016527  0.63834108  0.60217527     0.14400
H2929       H  0.76435905  0.67771189  0.60834461     0.00200
H2930       H  0.79851665  0.57684494  0.59390912     0.14700
H2931       H  0.81374000  0.65447175  0.51309845     0.14500
C2932       C  0.57382915  0.61386417  0.81109146     0.86300
C2933       C  0.56787378  0.64134857  0.77887640    -0.53900
C2934       C  0.59887712  0.64713098  0.76030698     0.09200
C2935       C  0.63348944  0.62731435  0.77562321     0.20200
C2936       C  0.59205852  0.58218054  0.79688815    -0.54700
C2937       C  0.62311711  0.58952614  0.77800423     0.09300
C2938       C  0.60611523  0.62904042  0.83226940    -0.54200
C2939       C  0.63769836  0.63683357  0.81302612     0.09900
H2940       H  0.54103532  0.65358011  0.77021442     0.14400
H2941       H  0.65764277  0.63333328  0.75869534     0.00200
H2942       H  0.57908440  0.55729154  0.79838624     0.14700
H2943       H  0.60310089  0.63557890  0.85817938     0.14500
C2944       C  0.83865668  0.69495100  0.71132307     0.29800
C2945       C  0.83679928  0.67301332  0.64681749     0.29800
C2946       C  0.81370765  0.71429765  0.68350131    -0.06400
C2947       C  0.87731076  0.69779694  0.69137776    -0.07200
C2948       C  0.83001489  0.65677429  0.71039891    -0.07000
C2949       C  0.80962397  0.70182889  0.65240418    -0.06400
C2950       C  0.87581401  0.68645561  0.65815191    -0.07200
C2951       C  0.82912256  0.64571176  0.67780294    -0.07000
C2952       C  0.79871441  0.72928668  0.62860602    -0.32400
N2953       N  0.79948196  0.75800975  0.64315537     0.14100
C2954       C  0.81228069  0.74923257  0.67549006    -0.32400
H2955       H  0.82684687  0.76644765  0.69014478     0.16000
C2956       C  0.91193501  0.68799216  0.64537127    -0.31400
N2957       N  0.93572796  0.70006324  0.66849351     0.12800
C2958       C  0.91495565  0.70630374  0.69645534    -0.31400
C2959       C  0.83394088  0.61028889  0.68342809    -0.31700
N2960       N  0.83485258  0.59880088  0.71791662     0.13300
H2961       H  0.83860565  0.59408568  0.66358630     0.15900
C2962       C  0.83660123  0.62733641  0.73393852    -0.31700
H2963       H  0.84285939  0.62642001  0.76127592     0.15900
H2964       H  0.92653078  0.71496979  0.71946316     0.15900
H2965       H  0.79889492  0.72894901  0.60157821     0.16000
H2966       H  0.92045495  0.68028573  0.62108825     0.15900
C2967       C  0.83508366  0.83978034  0.59728318     0.86300
C2968       C  0.80213981  0.86232499  0.60916867    -0.53900
C2969       C  0.76899027  0.84555062  0.61168404     0.09200
C2970       C  0.77248429  0.80839596  0.60079204     0.20200
C2971       C  0.83538106  0.80695418  0.62320422    -0.54700
C2972       C  0.80310952  0.79078400  0.62408084     0.09300
C2973       C  0.82163196  0.82786425  0.56231241    -0.54200
C2974       C  0.78862520  0.81066459  0.56472199     0.09900
H2975       H  0.80525516  0.88699338  0.61834402     0.14400
H2976       H  0.74736247  0.79241302  0.60335563     0.00200
H2977       H  0.85972324  0.79612997  0.63862977     0.14700
H2978       H  0.83858758  0.82941575  0.53946690     0.14500
C2979       C  0.79707143  0.51836963  0.77115119     0.86300
C2980       C  0.76649217  0.51373479  0.74435160    -0.53900
C2981       C  0.75217828  0.54351816  0.72697454     0.09200
C2982       C  0.77059839  0.57626324  0.73732851     0.20200
C2983       C  0.82675787  0.53987476  0.74985685    -0.54700
C2984       C  0.81260233  0.57058819  0.73273880     0.09300
C2985       C  0.77960478  0.54377598  0.79444137    -0.54200
C2986       C  0.76627924  0.57446001  0.77636124     0.09900
H2987       H  0.75593268  0.48884168  0.74109724     0.14400
H2988       H  0.75921369  0.60108415  0.72305193     0.00200
H2989       H  0.85572920  0.53215899  0.74813189     0.14700
H2990       H  0.77876066  0.53819035  0.82245179     0.14500
C2991       C  0.67157646  0.83365989  0.67022895     0.29800
C2992       C  0.73537617  0.85224309  0.63445660     0.29800
C2993       C  0.67208707  0.82760758  0.63307960    -0.06400
C2994       C  0.68114679  0.87476920  0.66560384    -0.07200
C2995       C  0.70854223  0.81543547  0.68454595    -0.07000
C2996       C  0.70251904  0.83894648  0.61479772    -0.06400
C2997       C  0.71426152  0.88348271  0.64684781    -0.07200
C2998       C  0.74040275  0.82769852  0.66925172    -0.07000
C2999       C  0.69398242  0.83826469  0.58033022    -0.32400
N3000       N  0.66100570  0.82288737  0.57801121     0.14100
C3001       C  0.64703291  0.81725957  0.61020663    -0.32400
H3002       H  0.62027602  0.80809339  0.61701267     0.16000
C3003       C  0.71689813  0.91936174  0.64220264    -0.31400
N3004       N  0.68692677  0.93418208  0.65634318     0.12800
C3005       C  0.66553981  0.90748341  0.67106135    -0.31400
C3006       C  0.77006455  0.81206444  0.68995385    -0.31700
N3007       N  0.75755161  0.78519903  0.71262680     0.13300
H3008       H  0.79895625  0.81903546  0.68742180     0.15900
C3009       C  0.72002143  0.78597376  0.70668596    -0.31700
H3010       H  0.70300204  0.76443012  0.71313949     0.15900
H3011       H  0.64067106  0.91182017  0.68515365     0.15900
H3012       H  0.71105273  0.84782881  0.55886597     0.16000
H3013       H  0.73937112  0.93366569  0.62955615     0.15900
C3014       C  0.61800372  0.81079752  0.49081587     0.86300
C3015       C  0.58667887  0.78949248  0.51044377    -0.53900
C3016       C  0.59986049  0.76910581  0.54014358     0.09200
C3017       C  0.64190356  0.77160999  0.54655649     0.20200
C3018       C  0.63462055  0.83052709  0.51903765    -0.54700
C3019       C  0.64683494  0.80988218  0.54792884     0.09300
C3020       C  0.64836642  0.78428137  0.48401519    -0.54200
C3021       C  0.66074366  0.76340502  0.51290176     0.09900
H3022       H  0.55713731  0.79258340  0.50368298     0.14400
H3023       H  0.65240536  0.75566878  0.57083772     0.00200
H3024       H  0.63539342  0.85847663  0.51701225     0.14700
H3025       H  0.66020716  0.78342974  0.45879009     0.14500
C3026       C  0.82701256  0.75036400  0.78712853     0.86300
C3027       C  0.84667465  0.72527563  0.76563072    -0.53900
C3028       C  0.82367698  0.71035465  0.74428856     0.09200
C3029       C  0.78041587  0.72230985  0.74846312     0.20200
C3030       C  0.80467558  0.77679435  0.76039539    -0.54700
C3031       C  0.77972380  0.76290224  0.73998059     0.09300
C3032       C  0.79640468  0.73004939  0.80747405    -0.54200
C3033       C  0.77114240  0.71540361  0.78831363     0.09900
H3034       H  0.87686283  0.72244237  0.76489389     0.14400
H3035       H  0.76034283  0.71035265  0.73198505     0.00200
H3036       H  0.80676521  0.80454161  0.75800613     0.14700
H3037       H  0.79448913  0.72883696  0.83507537     0.14500
C3038       C  0.75368191  0.69355976  0.53272928     0.29800
C3039       C  0.69375757  0.73797902  0.51461998     0.29800
C3040       C  0.75933816  0.73230707  0.53582960    -0.06400
C3041       C  0.73974953  0.69631674  0.49286232    -0.07200
C3042       C  0.71631590  0.68408672  0.55014504    -0.07000
C3043       C  0.72887443  0.75403972  0.52719594    -0.06400
C3044       C  0.70841566  0.71948433  0.48428293    -0.07200
C3045       C  0.68682006  0.70739820  0.54199344    -0.07000
C3046       C  0.73926662  0.78723221  0.53030808    -0.32400
N3047       N  0.77554730  0.78718815  0.54127301     0.17800
C3048       C  0.78857490  0.75377521  0.54229908    -0.32400
H3049       H  0.81701943  0.74515407  0.54949945     0.16000
C3050       C  0.69606241  0.71815049  0.95058299    -0.31400
N3051       N  0.71856096  0.69502071  0.93708601     0.12800
C3052       C  0.74512130  0.68243073  0.96231385    -0.31400
C3053       C  0.65428945  0.68998849  0.54905494    -0.31700
N3054       N  0.66216774  0.65724471  0.56348531     0.13300
H3055       H  0.62727291  0.69914760  0.53902436     0.15900
C3056       C  0.69950107  0.65239572  0.55908008    -0.31700
H3057       H  0.71372070  0.62736981  0.56180299     0.15900
H3058       H  0.76643134  0.66303110  0.95916721     0.15900
H3059       H  0.72117534  0.80984220  0.52507344     0.16000
H3060       H  0.67225579  0.73176933  0.93692131     0.15900
C3061       C  0.73610892  0.69647692  0.80419679     0.29800
C3062       C  0.67231192  0.65894701  0.81948429     0.29800
C3063       C  0.73710323  0.65882182  0.79735905    -0.06400
C3064       C  0.72467572  0.69155481  0.84396933    -0.07200
C3065       C  0.69934751  0.71172155  0.78632786    -0.07000
C3066       C  0.70637331  0.63981960  0.80672730    -0.06400
C3067       C  0.69149223  0.67268804  0.85173105    -0.07200
C3068       C  0.66780403  0.69300898  0.79368881    -0.07000
C3069       C  0.71594457  0.60552351  0.80471020    -0.32400
N3070       N  0.75060728  0.60344128  0.79160266     0.14100
C3071       C  0.76366848  0.63610450  0.78753862    -0.32400
H3072       H  0.79070730  0.64337411  0.77889245     0.16000
C3073       C  0.68675032  0.67137022  0.88761858    -0.31400
N3074       N  0.71556420  0.68749062  0.90205197     0.12800
C3075       C  0.73825359  0.69996654  0.87578907    -0.31400
C3076       C  0.63752368  0.71440093  0.78032060    -0.31700
N3077       N  0.64950423  0.74409544  0.76170131     0.13300
H3078       H  0.60872685  0.70899021  0.78571002     0.15900
C3079       C  0.68670649  0.74408968  0.77021811    -0.31700
H3080       H  0.70323059  0.76683957  0.76789581     0.15900
H3081       H  0.76238388  0.71481318  0.87995581     0.15900
H3082       H  0.69857202  0.58390907  0.81242078     0.16000
H3083       H  0.66391505  0.65953186  0.90205341     0.15900
N3084       N  0.88607798  0.01766683  0.95196213    -0.06300
N3085       N  0.88826931  0.54290100  0.97132540    -0.58400
N3086       N  0.89074846  0.97939408  0.87575269    -0.06000
N3087       N  0.39800921  0.99951662  0.84684402    -0.60500
N3088       N  0.86160692  0.99202024  0.89017753    -0.05600
N3089       N  0.85809524  0.52606067  0.87617132    -0.58400
N3090       N  0.91777854  0.02063913  0.93550227    -0.05300
N3091       N  0.43655052  0.04593592  0.94562921    -0.60900
C3092       C  0.41946486  0.56079448  0.96433758     0.95900
C3093       C  0.38021216  0.52972636  0.84808921     0.95700
N3094       N  0.97385208  0.90737342  0.90502846    -0.06500
N3095       N  0.97264388  0.88091082  0.88766279    -0.59000
N3096       N  0.99444207  0.97886294  0.93594505    -0.04600
N3097       N  0.52434305  0.99117486  0.91981000    -0.60300
N3098       N  0.00448809  0.95293609  0.95989667    -0.06500
N3099       N  0.04119606  0.95067351  0.96257692    -0.59300
N3100       N  0.96332656  0.93587228  0.88469715    -0.04200
N3101       N  0.45639939  0.92939377  0.85295456    -0.60300
Mn3102     Mn  0.94135528  0.97922014  0.90774557     1.18400
C3103       C  0.96237753  0.89499282  0.85522171     0.98000
C3104       C  0.05361728  0.97246707  0.93563188     0.98600
N3105       N  0.82463980  0.92558390  0.94231623    -0.06500
N3106       N  0.80415911  0.42339324  0.91798226    -0.62800
N3107       N  0.85825477  0.93471798  0.02075053    -0.05300
N3108       N  0.84470507  0.93132814  0.05224470    -0.63500
N3109       N  0.84236524  0.96105959  0.00109326    -0.06000
N3110       N  0.81759063  0.47545529  0.01757301    -0.63100
N3111       N  0.83930935  0.89580018  0.95807094    -0.04900
N3112       N  0.83304489  0.87124326  0.93859309    -0.63800
Mn3113     Mn  0.85500148  0.47616584  0.94679825     1.10700
C3114       C  0.80777502  0.38933939  0.91615382     0.99200
C3115       C  0.82032016  0.45863947  0.05045623     0.99300
N3116       N  0.97017262  0.90172012  0.01764745    -0.06100
N3117       N  0.99410898  0.91410860  0.03877458    -0.61400
N3118       N  0.91354822  0.85210985  0.97778109    -0.05400
N3119       N  0.89827953  0.82346845  0.97103458    -0.58200
N3120       N  0.94655395  0.85512747  0.96440801    -0.06700
N3121       N  0.95424176  0.82872182  0.94785485    -0.61000
N3122       N  0.93621243  0.90274321  0.02963390    -0.05700
N3123       N  0.93647488  0.91898843  0.05696355    -0.58200
Mn3124     Mn  0.97493183  0.90396910  0.96172370     1.20200
Mn3125     Mn  0.88607853  0.89505729  0.99764776     1.10100
Cl3126     Cl  0.91362191  0.93798762  0.95346776    -0.86100
C3127       C  0.97301166  0.92377114  0.06440370     0.96200
C3128       C  0.92390123  0.80886167  0.95222559     0.96000
C3129       C  0.85366208  0.76541766  0.81149353    -0.05400
C3130       C  0.86309639  0.80042560  0.80623076    -0.05400
C3131       C  0.87993906  0.81525400  0.83272677    -0.23500
C3132       C  0.88827193  0.79532336  0.86471364     0.18700
C3133       C  0.88251098  0.75946217  0.86933817     0.15900
C3134       C  0.86645657  0.74454618  0.84220921    -0.18600
C3135       C  0.89125847  0.73957664  0.90154416    -0.20400
C3136       C  0.90528507  0.75537876  0.92897119    -0.12900
C3137       C  0.91095635  0.79095748  0.92410871     0.03700
C3138       C  0.90202251  0.81080459  0.89223655    -0.25100
H3139       H  0.85724157  0.81690095  0.78205890     0.08800
H3140       H  0.88575576  0.84251143  0.82837509     0.12400
H3141       H  0.86111591  0.71714901  0.84602562     0.12300
H3142       H  0.88664323  0.71207006  0.90565278     0.12100
H3143       H  0.91146665  0.74002378  0.95387390     0.12600
H3144       H  0.90566526  0.83847925  0.88903271     0.14600
C3145       C  0.60838313  0.83569115  0.45822113    -0.05400
C3146       C  0.57417301  0.83585823  0.44004818    -0.05400
C3147       C  0.56330514  0.86445436  0.41588635    -0.23500
C3148       C  0.58436056  0.89441825  0.41302229     0.18700
C3149       C  0.62022748  0.89300002  0.42883268     0.15900
C3150       C  0.63358815  0.86206877  0.44788784    -0.18600
C3151       C  0.63877585  0.92376201  0.43122563    -0.20400
C3152       C  0.61831110  0.95516254  0.42567140    -0.12900
C3153       C  0.58083703  0.95576351  0.41446060     0.03700
C3154       C  0.56749890  0.92672156  0.40096474    -0.25100
H3155       H  0.55530848  0.81478572  0.44530641     0.08800
H3156       H  0.53647948  0.86455035  0.40297954     0.12400
H3157       H  0.66112167  0.86116632  0.46017881     0.12300
H3158       H  0.66641858  0.92308678  0.44320571     0.12100
H3159       H  0.12985768  0.97837173  0.93592824     0.12600
H3160       H  0.53909517  0.92772946  0.39087124     0.14600
C3161       C  0.80857546  0.48314514  0.79121086    -0.05400
C3162       C  0.84574573  0.47013623  0.79499113    -0.05400
C3163       C  0.85445536  0.43867214  0.81599007    -0.23500
C3164       C  0.82609368  0.41935843  0.83275661     0.18700
C3165       C  0.78849119  0.42987871  0.82533300     0.15900
C3166       C  0.78009209  0.46197249  0.80574829    -0.18600
C3167       C  0.75998231  0.40945235  0.84028734    -0.20400
C3168       C  0.76874607  0.38300672  0.86744340    -0.12900
C3169       C  0.80529250  0.37954447  0.88137548     0.03700
C3170       C  0.83435217  0.39245816  0.85995869    -0.25100
H3171       H  0.86850356  0.48465961  0.78341353     0.08800
H3172       H  0.88345271  0.43036799  0.82049509     0.12400
H3173       H  0.75115304  0.47103599  0.80259352     0.12300
H3174       H  0.73091036  0.41609916  0.83355112     0.12100
H3175       H  0.74602596  0.37148637  0.88238800     0.12600
H3176       H  0.86811333  0.88937496  0.86594767     0.14600
C3177       C  0.98827496  0.90905418  0.60121517    -0.05400
C3178       C  0.96853811  0.92643640  0.62475707    -0.05400
C3179       C  0.93480942  0.91254238  0.63712408    -0.23500
C3180       C  0.92373279  0.88146742  0.62614590     0.18700
C3181       C  0.95140169  0.86010128  0.61328565     0.15900
C3182       C  0.98743813  0.87290411  0.60824425    -0.18600
C3183       C  0.94062740  0.83277847  0.59626051    -0.20400
C3184       C  0.90309637  0.82954756  0.58779539    -0.12900
C3185       C  0.87503345  0.85131693  0.59906046     0.03700
C3186       C  0.88577393  0.87572028  0.62049723    -0.25100
H3187       H  0.97337934  0.95342308  0.62604218     0.08800
H3188       H  0.91534518  0.92857505  0.64917319     0.12400
H3189       H  0.00639468  0.86377188  0.09801705     0.12300
H3190       H  0.96130235  0.81638325  0.58605634     0.12100
H3191       H  0.89567530  0.80872605  0.57360781     0.12600
H3192       H  0.86508657  0.89165266  0.63105110     0.14600
C3193       C  0.53509264  0.60507081  0.82590907    -0.05400
C3194       C  0.52470565  0.60678703  0.86025354    -0.05400
C3195       C  0.48827606  0.59809998  0.87112372    -0.23500
C3196       C  0.46143487  0.58780255  0.84782082     0.18700
C3197       C  0.47126895  0.58758322  0.81311808     0.15900
C3198       C  0.50760888  0.59542957  0.80275973    -0.18600
C3199       C  0.44501358  0.57818724  0.78930602    -0.20400
C3200       C  0.91110893  0.56469311  0.80061427    -0.12900
C3201       C  0.40211807  0.56074657  0.83564981     0.03700
C3202       C  0.42597719  0.57551524  0.85859777    -0.25100
H3203       H  0.54465326  0.61426713  0.87880579     0.08800
H3204       H  0.48138926  0.59873343  0.89792048     0.12400
H3205       H  0.51476516  0.59388473  0.77613496     0.12300
H3206       H  0.95187093  0.57858595  0.76233258     0.12100
H3207       H  0.89382334  0.55367688  0.78247617     0.12600
H3208       H  0.41825317  0.57479210  0.88510393     0.14600
C3209       C  0.85691022  0.59857025  0.55123510    -0.05400
C3210       C  0.84127484  0.58951792  0.52048302    -0.05400
C3211       C  0.81812087  0.56145366  0.52381305    -0.23500
C3212       C  0.82133532  0.53790151  0.55420558     0.18700
C3213       C  0.85227092  0.53919632  0.57713296     0.15900
C3214       C  0.87135358  0.57037418  0.57508817    -0.18600
C3215       C  0.86024761  0.51051184  0.60246630    -0.20400
C3216       C  0.84043278  0.48017027  0.60083963    -0.12900
C3217       C  0.81129974  0.48039077  0.57573719     0.03700
C3218       C  0.79543338  0.51248733  0.56209521    -0.25100
H3219       H  0.83851521  0.60802651  0.49718962     0.08800
H3220       H  0.79801167  0.55837455  0.50341593     0.12400
H3221       H  0.88981054  0.57473022  0.59630159     0.12300
H3222       H  0.88339251  0.51048105  0.62080331     0.12100
H3223       H  0.85114654  0.45612108  0.61511770     0.12600
H3224       H  0.77046609  0.51337739  0.54563367     0.14600
C3225       C  0.54852745  0.83788191  0.73450532    -0.05400
C3226       C  0.54472793  0.87416120  0.72609369    -0.05400
C3227       C  0.52080011  0.89303199  0.74458658    -0.23500
C3228       C  0.50068157  0.87595366  0.77174004     0.18700
C3229       C  0.50118227  0.83942686  0.77745913     0.15900
C3230       C  0.52366251  0.82075246  0.75764176    -0.18600
C3231       C  0.48296302  0.82206837  0.80563654    -0.20400
C3232       C  0.46863726  0.84064131  0.83038804    -0.12900
C3233       C  0.46926845  0.87678013  0.82574217     0.03700
C3234       C  0.48313298  0.89455775  0.79525295    -0.25100
H3235       H  0.56025449  0.88851701  0.70586471     0.08800
H3236       H  0.51990086  0.92098992  0.73911611     0.12400
H3237       H  0.52483984  0.79274983  0.76286913     0.12300
H3238       H  0.48327384  0.79408706  0.81044005     0.12100
H3239       H  0.95939342  0.82666759  0.85413161     0.12600
H3240       H  0.48433945  0.92249520  0.79190168     0.14600
C3241       C  0.43778411  0.57779425  0.49038185    -0.05400
C3242       C  0.45431842  0.60983936  0.97748244    -0.05400
C3243       C  0.48537828  0.61897900  0.49616085    -0.23500
C3244       C  0.50007906  0.59745265  0.52525605     0.18700
C3245       C  0.48175579  0.56721951  0.53876056     0.15900
C3246       C  0.44980823  0.55799168  0.52160035    -0.18600
C3247       C  0.49696708  0.54589723  0.56788515    -0.20400
C3248       C  0.53045308  0.55433827  0.58317723    -0.12900
C3249       C  0.54936698  0.58392174  0.56908288     0.03700
C3250       C  0.53337198  0.60547221  0.54042206    -0.25100
H3251       H  0.44561734  0.62446148  0.95278633     0.08800
H3252       H  0.49838267  0.64385265  0.98503832     0.12400
H3253       H  0.93717780  0.53337324  0.53017176     0.12300
H3254       H  0.48292392  0.52288660  0.57887386     0.12100
H3255       H  0.54041065  0.53844460  0.60667524     0.12600
H3256       H  0.54616862  0.62955461  0.53063380     0.14600
loop_ 
_geom_bond_atom_site_label_1 
_geom_bond_atom_site_label_2 
_geom_bond_distance 
_geom_bond_site_symmetry_2 
_ccdc_geom_bond_type 
C1            C2   1.549       .  S
C1            C7   1.553       .  S
C1            C5   1.543       .  S
C1          C400   1.506       .  S
C2            H9   1.080       .  S
C2            C3   1.359       .  D
C3            C4   1.602       .  S
C3           C49   1.580       .  S
C4            C8   1.568       .  S
C4            C6   1.579       .  S
C4           H10   1.103       .  S
C5           H11   1.085       .  S
C5            C6   1.342       .  D
C6           C13   1.564       .  S
C7           H12   1.086       .  S
C7            C8   1.361       .  D
C8          N205   1.469       .  S
C13          C15   1.529       .  S
C13          C17   1.512       .  S
C13          C16   1.596       .  S
C14          C41   1.574       .  S
C14          C18   1.542       .  S
C14          C20   1.503       .  S
C14          C19   1.590       .  S
C15          C23   1.383       .  A
C15          C18   1.398       .  A
C16          C19   1.427       .  A
C16        C1655   1.404   1_455  A
C17          C31   1.365       .  A
C17          C20   1.383       .  A
C18          C21   1.392       .  A
C19        C1653   1.408   1_455  A
C20          C28   1.372       .  A
C21          N22   1.357       .  A
C21          H34   1.082       .  S
N22         C167   1.450       .  S
N22          C23   1.354       .  A
C23          H24   1.081       .  S
C25        C1647   1.408       .  A
C25          N26   1.373       .  A
C25          H35   1.081       .  S
N26          C27   1.374       .  A
N26         N108   1.443       .  S
C27        C1644   1.404       .  A
C27          H33   1.081       .  S
C28          N29   1.334       .  A
C28          H30   1.079       .  S
N29          C85   1.421       .  S
N29          C31   1.338       .  A
C31          H32   1.057       .  S
C36          C37   1.540       .  S
C36          C42   1.558       .  S
C36          C40   1.532       .  S
C36         C376   1.507       .  S
C37          H44   1.073       .  S
C37          C38   1.355       .  D
C38          C39   1.588       .  S
C38         C142   1.566       .  S
C39          C43   1.587       .  S
C39          C41   1.610       .  S
C39          H45   1.108       .  S
C40          H46   1.084       .  S
C40          C41   1.347       .  D
C42          H47   1.086       .  S
C42          C43   1.360       .  D
C43         N228   1.488       .  S
C48         C132   1.510       .  S
C48          C50   1.496       .  S
C48          C52   1.531       .  S
C48          C51   1.543       .  S
C49          C53   1.558       .  S
C49          C55   1.544       .  S
C49          C54   1.639       .  S
C50          C58   1.370       .  A
C50          C53   1.358       .  A
C51          C54   1.424       .  A
C51         C876   1.388   1_545  A
C52          C66   1.376       .  A
C52          C55   1.382       .  A
C53          C56   1.384       .  A
C54         C874   1.434   1_545  A
C55          C63   1.391       .  A
C56          N57   1.350       .  A
C56          H69   1.044       .  S
N57          C76   1.451       .  S
N57          C58   1.349       .  A
C58          H59   1.074       .  S
C60         C868   1.431       .  A
C60          N61   1.387       .  A
C60          H70   1.081       .  S
N61          C62   1.352       .  A
N61         N155   1.440       .  S
C62         C865   1.386       .  A
C62          H68   1.078       .  S
C63          N64   1.364       .  A
C63          H65   1.081       .  S
N64          C88   1.451       .  S
N64          C66   1.354       .  A
C66          H67   1.076       .  S
C71          C72   1.537       .  S
C71          C77   1.554       .  S
C71          C75   1.555       .  S
C71         C360   1.522       .  S
C72          H79   1.084       .  S
C72          C73   1.366       .  D
C73          C74   1.592       .  S
C73          C96   1.558       .  S
C74          C78   1.596       .  S
C74          C76   1.528       .  S
C74          H80   1.107       .  S
C75          H81   1.075       .  S
C75          C76   1.342       .  D
C77          H82   1.082       .  S
C77          C78   1.349       .  D
C78         C189   1.569       .  S
C83          C84   1.543       .  S
C83          C89   1.583       .  S
C83          C87   1.558       .  S
C83         C344   1.545       .  S
C84          H91   1.087       .  S
C84          C85   1.349       .  D
C85          C86   1.510       .  S
C86          C90   1.564       .  S
C86          C88   1.526       .  S
C86          H92   1.111       .  S
C87          H93   1.086       .  S
C87          C88   1.363       .  D
C89          H94   1.084       .  S
C89          C90   1.389       .  D
C90         C213   1.570       .  S
C95         C179   1.591       .  S
C95          C97   1.496       .  S
C95          C99   1.539       .  S
C95          C98   1.603       .  S
C96         C100   1.511       .  S
C96         C102   1.529       .  S
C96         C101   1.583       .  S
C97         C105   1.359       .  A
C97         C100   1.377       .  A
C98         C109   1.414       .  A
C98         C101   1.428       .  A
C99         C113   1.380       .  A
C99         C102   1.399       .  A
C100        C103   1.358       .  A
C101        C107   1.397       .  A
C102        C110   1.376       .  A
C103        N104   1.330       .  A
C103        H116   1.052       .  S
N104        C123   1.401       .  S
N104        C105   1.328       .  A
C105        H106   1.081       .  S
C107        N108   1.368       .  A
C107        H117   1.081       .  S
N108        C109   1.380       .  A
C109        H115   1.082       .  S
C110        N111   1.355       .  A
C110        H112   1.079       .  S
N111        C135   1.443       .  S
N111        C113   1.356       .  A
C113        H114   1.080       .  S
C118        C119   1.570       .  S
C118        C124   1.573       .  S
C118        C122   1.521       .  S
C118        C336   1.518       .  S
C119        H126   1.084       .  S
C119        C120   1.374       .  D
C120        C121   1.572       .  S
C120        C143   1.550       .  S
C121        C125   1.526       .  S
C121        C123   1.496       .  S
C121        H127   1.110       .  S
C122        H128   1.089       .  S
C122        C123   1.334       .  D
C124        H129   1.085       .  S
C124        C125   1.374       .  D
C125        N198   1.464       .  S
C130        C131   1.531       .  S
C130        C136   1.565       .  S
C130        C134   1.557       .  S
C130        C312   1.526   1_545  S
C131        H138   1.079   1_545  S
C131        C132   1.343       .  D
C132        C133   1.560       .  S
C133        C137   1.524       .  S
C133        C135   1.533       .  S
C133        H139   1.111       .  S
C134        H140   1.078       .  S
C134        C135   1.367       .  D
C136        H141   1.085       .  S
C136        C137   1.371       .  D
C137        N221   1.455       .  S
C142        C144   1.503       .  S
C142        C146   1.543       .  S
C142        C145   1.636       .  S
C143        C147   1.534       .  S
C143        C149   1.552       .  S
C143        C148   1.556       .  S
C144        C152   1.362       .  A
C144        C147   1.368       .  A
C145        C156   1.423       .  A
C145        C148   1.433       .  A
C146        C160   1.386       .  A
C146        C149   1.368       .  A
C147        C150   1.377       .  A
C148        C154   1.393       .  A
C149        C157   1.394       .  A
C150        N151   1.349       .  A
C150        H163   1.079       .  S
N151        C170   1.433       .  S
N151        C152   1.355       .  A
C152        H153   1.059       .  S
C154        N155   1.367       .  A
C154        H164   1.082       .  S
N155        C156   1.379       .  A
C156        H162   1.079       .  S
C157        N158   1.369       .  A
C157        H159   1.081       .  S
N158        C182   1.482       .  S
N158        C160   1.359       .  A
C160        H161   1.059       .  S
C165        C166   1.570   1_556  S
C165        C171   1.533       .  S
C165        C169   1.548   1_556  S
C165        C296   1.517       .  S
C166        H173   1.084       .  S
C166        C167   1.380       .  D
C167        C168   1.528       .  S
C168        C172   1.556       .  S
C168        C170   1.523       .  S
C168        H174   1.110       .  S
C169        H175   1.086       .  S
C169        C170   1.349       .  D
C171        H176   1.085       .  S
C171        C172   1.352   1_556  D
C172        C190   1.514       .  S
C177        C178   1.544       .  S
C177        C183   1.542       .  S
C177        C181   1.553       .  S
C177        C280   1.524       .  S
C178        H185   1.085       .  S
C178        C179   1.360       .  D
C179        C180   1.622       .  S
C180        C184   1.586       .  S
C180        C182   1.576       .  S
C180        H186   1.110       .  S
C181        H187   1.081       .  S
C181        C182   1.360       .  D
C183        H188   1.075       .  S
C183        C184   1.352       .  D
C184        C212   1.575       .  S
C189        C191   1.559       .  S
C189        C193   1.548       .  S
C189        C192   1.611   1_554  S
C190        C194   1.522       .  S
C190        C196   1.518       .  S
C190        C195   1.562   1_554  S
C191        C199   1.404       .  A
C191        C194   1.369       .  A
C192        C195   1.425       .  A
C192        C610   1.419       .  A
C193        C207   1.399       .  A
C193        C196   1.377       .  A
C194        C197   1.382       .  A
C195        C608   1.392       .  A
C196        C204   1.382       .  A
C197        N198   1.357       .  A
C197        H210   1.074       .  S
N198        C199   1.371       .  A
C199        H200   1.083       .  S
C201        C602   1.392       .  A
C201        N202   1.361       .  A
C201        H211   1.081       .  S
N202        C203   1.384       .  A
N202        N225   1.440       .  S
C203        C599   1.420       .  A
C203        H209   1.082       .  S
C204        N205   1.346       .  A
C204        H206   1.069       .  S
N205        C207   1.364       .  A
C207        H208   1.081       .  S
C212        C214   1.535       .  S
C212        C216   1.541       .  S
C212        C215   1.600       .  S
C213        C217   1.537       .  S
C213        C219   1.552       .  S
C213        C218   1.588       .  S
C214        C222   1.380       .  A
C214        C217   1.376       .  A
C215        C226   1.408       .  A
C215        C218   1.434       .  A
C216        C230   1.390       .  A
C216        C219   1.378       .  A
C217        C220   1.386       .  A
C218        C224   1.408       .  A
C219        C227   1.394       .  A
C220        N221   1.356       .  A
C220        H233   1.077       .  S
N221        C222   1.364       .  A
C222        H223   1.065       .  S
C224        N225   1.376       .  A
C224        H234   1.082       .  S
N225        C226   1.367       .  A
C226        H232   1.077       .  S
C227        N228   1.366       .  A
C227        H229   1.078       .  S
N228        C230   1.366       .  A
C230        H231   1.077       .  S
N235        N241   1.319       .  A
N235       N1050   1.317       .  A
N235      Mn1078   2.154       .  S
N236       C1871   1.350       .  A
N236       N1049   1.316       .  A
N237        N239   1.312       .  A
N237       N1866   1.314       .  A
N237       Mn253   2.177       .  S
N238       C1058   1.339       .  A
N238       N1865   1.314       .  A
N239       N1054   1.335       .  A
N239      Mn1078   2.232       .  S
N240       C1872   1.361       .  A
N240       N1053   1.335   1_545  A
N241       N1870   1.312       .  A
N241       Mn253   2.227       .  S
N242       C1057   1.348       .  A
N242       N1869   1.312       .  A
C243       N1864   1.350       .  A
C243       N1056   1.350       .  A
C243        C799   1.439       .  S
C244       N1052   1.338   1_545  A
C244       N1868   1.361       .  A
C244        C352   1.494       .  S
N245        N251   1.315       .  A
N245        N246   1.314       .  A
N245       Mn275   2.195       .  S
N246        C254   1.345       .  A
N247        N249   1.316       .  A
N247       N1876   1.324       .  A
N247       Mn253   2.175       .  S
N248       C1883   1.349       .  A
N248       N1875   1.324   1_455  A
N249        N250   1.317       .  A
N249       Mn275   2.212       .  S
N250        C255   1.350       .  A
N251       N1880   1.319       .  A
N251       Mn253   2.163       .  S
N252       C1882   1.350       .  A
N252       N1879   1.319       .  A
Mn253      Cl277   2.475       .  S
C254       N1880   1.350       .  A
C254       C2012   1.457       .  S
C255       N1876   1.349       .  A
C255       C2339   1.473       .  S
N256        N262   1.326       .  A
N256       N1071   1.309       .  A
N256      Mn1078   2.195       .  S
N257        C265   1.346       .  A
N257       N1070   1.309       .  A
N258        N260   1.303       .  A
N258        N259   1.321       .  A
N258       Mn276   2.131       .  S
N259       C1080   1.349       .  A
N260       N1075   1.307       .  A
N260      Mn1078   2.160       .  S
N261        C266   1.358       .  A
N261       N1074   1.305       .  A
N262        N263   1.326       .  A
N262       Mn276   2.248       .  S
N263       C1079   1.355       .  A
Mn264      N1049   2.146   1_565  S
Mn264      N1053   2.241       .  S
Mn264      N1070   2.196       .  S
Mn264      N1074   2.167       .  S
Mn264     Cl1091   2.563       .  S
C265       N1077   1.356       .  A
C265        C320   1.463       .  S
C266       N1073   1.349       .  A
C266        C775   1.473       .  S
N267        N268   1.325       .  A
N267        N273   1.313       .  A
N267       Mn275   2.187       .  S
N268        C278   1.359       .  A
N269        N270   1.318       .  A
N269        N271   1.305       .  A
N269       Mn276   2.168       .  S
N270        C279   1.351       .  A
N271        N272   1.319       .  A
N271       Mn275   2.181       .  S
N272        C279   1.354       .  A
N273        N274   1.313       .  A
N273       Mn276   2.207       .  S
N274        C278   1.356       .  A
Mn275      Cl277   2.528       .  S
Mn276      Cl277   2.469       .  S
Cl277     Mn1078   2.558       .  S
C278        C735   1.485       .  S
C279        C288   1.458       .  S
C280        C281   1.409       .  A
C280        C285   1.413       .  A
C281        C282   1.390       .  A
C281        H290   1.078       .  S
C282        C283   1.397       .  A
C282        H291   1.083       .  S
C283        C289   1.393       .  A
C283        C284   1.411       .  A
C284        C286   1.407       .  A
C284        C285   1.400       .  A
C285        H292   1.084       .  S
C286        C287   1.400       .  A
C286        H293   1.083       .  S
C287        C288   1.399       .  A
C287        H294   1.083       .  S
C288        C289   1.396       .  A
C289        H295   1.083       .  S
C296        C297   1.401       .  A
C296        C301   1.414       .  A
C297        C298   1.399       .  A
C297        H306   1.081       .  S
C298        C299   1.404       .  A
C298        H307   1.074       .  S
C299        C305   1.401       .  A
C299        C300   1.409       .  A
C300        C302   1.405       .  A
C300        C301   1.395       .  A
C301        H308   1.085       .  S
C302        C303   1.400       .  A
C302        H309   1.084       .  S
C303        C304   1.401       .  A
C303       H2345   1.083       .  S
C304        C305   1.409       .  A
C304       C2290   1.472       .  S
C305        H311   1.082       .  S
H310       C2338   1.083       .  S
C312        C313   1.409       .  A
C312        C317   1.411       .  A
C313        C314   1.403       .  A
C313        H322   1.079       .  S
C314        C315   1.403       .  A
C314        H323   1.083       .  S
C315        C321   1.407       .  A
C315        C316   1.409       .  A
C316        C318   1.401       .  A
C316        C317   1.395       .  A
C317        H324   1.085       .  S
C318        C319   1.396       .  A
C318        H325   1.084       .  S
C319        C320   1.402       .  A
C319        H326   1.084       .  S
C320        C321   1.411       .  A
C321       H1141   1.084       .  S
H327       C1135   1.084       .  S
C328        C329   1.409       .  A
C328        C333   1.404       .  A
C328        C685   1.485       .  S
C329        C330   1.409       .  A
C329        H338   1.083       .  S
C330        C331   1.409       .  A
C330        H339   1.083       .  S
C331        C337   1.405       .  A
C331        C332   1.422       .  A
C332        C334   1.394       .  A
C332        C333   1.407       .  A
C333        H747   1.085       .  S
C334        C335   1.391       .  A
C334        H341   1.084       .  S
C335        C336   1.415       .  A
C335        H342   1.083       .  S
C336        C337   1.412       .  A
C337        H343   1.080       .  S
H340        C740   1.085       .  S
C344        C345   1.409       .  A
C344        C349   1.417       .  A
C345        C346   1.417   1_455  A
C345        H354   1.081       .  S
C346        C347   1.414       .  A
C346        H355   1.083       .  S
C347        C353   1.422       .  A
C347        C348   1.407       .  A
C348        C350   1.401       .  A
C348        C349   1.402   1_655  A
C349        H356   1.085       .  S
C350       C1979   1.395       .  A
C350       H1985   1.084       .  S
C351       C1978   1.395       .  A
C351       C1980   1.401       .  A
C351        H358   1.073       .  S
C352        C353   1.416       .  A
C352       C1979   1.401       .  A
C353        H359   1.071       .  S
H357       C1978   1.084       .  S
C360        C361   1.407       .  A
C360        C365   1.419       .  A
C361        C362   1.388       .  A
C361        H370   1.080       .  S
C362        C363   1.396       .  A
C362        H371   1.083       .  S
C363        C369   1.387       .  A
C363        C364   1.414       .  A
C364        C366   1.406       .  A
C364        C365   1.409       .  A
C365        H372   1.083       .  S
C366        C367   1.410   1_545  A
C366        H373   1.083       .  S
C367        C368   1.413       .  A
C367        H374   1.078       .  S
C368        C369   1.391   1_565  A
C368        C673   1.474       .  S
C369        H375   1.086       .  S
C376        C377   1.410       .  A
C376        C381   1.400       .  A
C377        C378   1.393       .  A
C377        H386   1.079       .  S
C378        C379   1.398   1_455  A
C378        H387   1.084       .  S
C379        C385   1.396       .  A
C379        C380   1.414       .  A
C380        C382   1.394       .  A
C380        C381   1.388   1_655  A
C381        H388   1.085       .  S
C382        C383   1.385       .  A
C382        H389   1.084       .  S
C383        C384   1.402       .  A
C383       H2018   1.078       .  S
C384        C385   1.400       .  A
C384       C1882   1.457       .  S
C385        H391   1.084       .  S
H390       C2011   1.078       .  S
C392        C397   1.399   1_556  A
C392        C800   1.396       .  A
C392        C650   1.438       .  S
C393        C799   1.397       .  A
C393        C801   1.390       .  A
C393        H402   1.084       .  S
C394        C395   1.400       .  A
C394        C800   1.389   1_554  A
C394        H810   1.084   1_554  S
C395        C401   1.386   1_655  A
C395        C396   1.412       .  A
C396        C398   1.400   1_655  A
C396        C397   1.391       .  A
C397       H2032   1.086       .  S
C398        C399   1.394       .  A
C398        H405   1.084   1_455  S
C399        C400   1.408       .  A
C399        H406   1.078       .  S
C400        C401   1.405       .  A
C401        H407   1.085       .  S
H403        C801   1.084       .  S
H404       C2025   1.086       .  S
C408        C409   1.552       .  S
C408        C414   1.552       .  S
C408        C412   1.542       .  S
C408        C807   1.506       .  S
C409        H416   1.080       .  S
C409        C410   1.361       .  D
C410        C411   1.602       .  S
C410        C456   1.584       .  S
C411        C415   1.568       .  S
C411        C413   1.577       .  S
C411        H417   1.103       .  S
C412        H418   1.085       .  S
C412        C413   1.341       .  D
C413        C420   1.562       .  S
C414        H419   1.086       .  S
C414        C415   1.360       .  D
C415        N612   1.468       .  S
C420        C422   1.529       .  S
C420        C424   1.511       .  S
C420        C423   1.594       .  S
C421        C448   1.573       .  S
C421        C425   1.541       .  S
C421        C427   1.502       .  S
C421        C426   1.590       .  S
C422        C430   1.383       .  A
C422        C425   1.398       .  A
C423       C2062   1.403   1_455  A
C423        C426   1.427       .  A
C424        C438   1.364       .  A
C424        C427   1.383       .  A
C425        C428   1.390       .  A
C426       C2060   1.408   1_455  A
C427        C435   1.371       .  A
C428        N429   1.356       .  A
C428        H441   1.082       .  S
N429        C574   1.448       .  S
N429        C430   1.354       .  A
C430        H431   1.081       .  S
C432       C2054   1.408       .  A
C432        N433   1.373       .  A
C432        H442   1.081       .  S
N433        C434   1.373       .  A
N433        N515   1.442       .  S
C434       C2051   1.403       .  A
C434        H440   1.081       .  S
C435        N436   1.333       .  A
C435        H437   1.079       .  S
N436        C492   1.420       .  S
N436        C438   1.337       .  A
C438        H439   1.058       .  S
C443        C444   1.541       .  S
C443        C449   1.558       .  S
C443        C447   1.532       .  S
C443        C783   1.506       .  S
C444        H451   1.074       .  S
C444        C445   1.355       .  D
C445        C446   1.589       .  S
C445        C549   1.567       .  S
C446        C450   1.588       .  S
C446        C448   1.609       .  S
C446        H452   1.108       .  S
C447        H453   1.084       .  S
C447        C448   1.346       .  D
C449        H454   1.086       .  S
C449        C450   1.359       .  D
C450        N635   1.487       .  S
C455        C539   1.513       .  S
C455        C457   1.497       .  S
C455        C459   1.531       .  S
C455        C458   1.544       .  S
C456        C460   1.558       .  S
C456        C462   1.545       .  S
C456        C461   1.639       .  S
C457        C465   1.369       .  A
C457        C460   1.359       .  A
C458       C1283   1.388   1_545  A
C458        C461   1.424       .  A
C459        C473   1.376       .  A
C459        C462   1.384       .  A
C460        C463   1.385       .  A
C461       C1281   1.434   1_545  A
C462        C470   1.391       .  A
C463        N464   1.350       .  A
C463        H476   1.043       .  S
N464        C483   1.451       .  S
N464        C465   1.350       .  A
C465        H466   1.074       .  S
C467       C1275   1.430       .  A
C467        N468   1.387       .  A
C467        H477   1.081       .  S
N468        C469   1.352       .  A
N468        N562   1.440       .  S
C469       C1272   1.386       .  A
C469        H475   1.078       .  S
C470        N471   1.364       .  A
C470        H472   1.081       .  S
N471        C495   1.450       .  S
N471        C473   1.354       .  A
C473        H474   1.076       .  S
C478        C479   1.539       .  S
C478        C484   1.553       .  S
C478        C482   1.553       .  S
C478        C767   1.521       .  S
C479        H486   1.084       .  S
C479        C480   1.366       .  D
C480        C481   1.593       .  S
C480        C503   1.561       .  S
C481        C485   1.598       .  S
C481        C483   1.529       .  S
C481        H487   1.108       .  S
C482        H488   1.074       .  S
C482        C483   1.340       .  D
C484        H489   1.083       .  S
C484        C485   1.349       .  D
C485        C596   1.571       .  S
C490        C491   1.542       .  S
C490        C496   1.584       .  S
C490        C494   1.558       .  S
C490        C751   1.546       .  S
C491        H498   1.087       .  S
C491        C492   1.348       .  D
C492        C493   1.509       .  S
C493        C497   1.563       .  S
C493        C495   1.526       .  S
C493        H499   1.111       .  S
C494        H500   1.086       .  S
C494        C495   1.364       .  D
C496        H501   1.084       .  S
C496        C497   1.389       .  D
C497        C620   1.570       .  S
C502        C586   1.589       .  S
C502        C504   1.496       .  S
C502        C506   1.538       .  S
C502        C505   1.600       .  S
C503        C507   1.510       .  S
C503        C509   1.530       .  S
C503        C508   1.583       .  S
C504        C512   1.360       .  A
C504        C507   1.377       .  A
C505        C516   1.413       .  A
C505        C508   1.429       .  A
C506        C520   1.379       .  A
C506        C509   1.400       .  A
C507        C510   1.357       .  A
C508        C514   1.397       .  A
C509        C517   1.376       .  A
C510        N511   1.330       .  A
C510        H523   1.052       .  S
N511        C530   1.401       .  S
N511        C512   1.329       .  A
C512        H513   1.081       .  S
C514        N515   1.368       .  A
C514        H524   1.081       .  S
N515        C516   1.379       .  A
C516        H522   1.082       .  S
C517        N518   1.355       .  A
C517        H519   1.080       .  S
N518        C542   1.442       .  S
N518        C520   1.355       .  A
C520        H521   1.080       .  S
C525        C526   1.569       .  S
C525        C531   1.573       .  S
C525        C529   1.522       .  S
C525        C743   1.518       .  S
C526        H533   1.083       .  S
C526        C527   1.373       .  D
C527        C528   1.571       .  S
C527        C550   1.548       .  S
C528        C532   1.526       .  S
C528        C530   1.497       .  S
C528        H534   1.110       .  S
C529        H535   1.089       .  S
C529        C530   1.334       .  D
C531        H536   1.085       .  S
C531        C532   1.375       .  D
C532        N605   1.465       .  S
C537        C538   1.533       .  S
C537        C543   1.565       .  S
C537        C541   1.556       .  S
C537        C719   1.527   1_545  S
C538        H545   1.079   1_545  S
C538        C539   1.344       .  D
C539        C540   1.559       .  S
C540        C544   1.525       .  S
C540        C542   1.534       .  S
C540        H546   1.111       .  S
C541        H547   1.080       .  S
C541        C542   1.367       .  D
C543        H548   1.085       .  S
C543        C544   1.372       .  D
C544        N628   1.455       .  S
C549        C551   1.503       .  S
C549        C553   1.542       .  S
C549        C552   1.636       .  S
C550        C554   1.534       .  S
C550        C556   1.552       .  S
C550        C555   1.554       .  S
C551        C559   1.361       .  A
C551        C554   1.368       .  A
C552        C563   1.424       .  A
C552        C555   1.432       .  A
C553        C567   1.385       .  A
C553        C556   1.367       .  A
C554        C557   1.377       .  A
C555        C561   1.392       .  A
C556        C564   1.394       .  A
C557        N558   1.349       .  A
C557        H570   1.079       .  S
N558        C577   1.433       .  S
N558        C559   1.354       .  A
C559        H560   1.059       .  S
C561        N562   1.366       .  A
C561        H571   1.082       .  S
N562        C563   1.380       .  A
C563        H569   1.079       .  S
C564        N565   1.369       .  A
C564        H566   1.081       .  S
N565        C589   1.482       .  S
N565        C567   1.358       .  A
C567        H568   1.059       .  S
C572        C573   1.568       .  S
C572        C578   1.534       .  S
C572        C576   1.548       .  S
C572        C703   1.517       .  S
C573        H580   1.084       .  S
C573        C574   1.378       .  D
C574        C575   1.529       .  S
C575        C579   1.556       .  S
C575        C577   1.523       .  S
C575        H581   1.110       .  S
C576        H582   1.086       .  S
C576        C577   1.349       .  D
C578        H583   1.084       .  S
C578        C579   1.353       .  D
C579        C597   1.515       .  S
C584        C585   1.544       .  S
C584        C590   1.542       .  S
C584        C588   1.554       .  S
C584        C687   1.525       .  S
C585        H592   1.085       .  S
C585        C586   1.361       .  D
C586        C587   1.619       .  S
C587        C591   1.586       .  S
C587        C589   1.576       .  S
C587        H593   1.110       .  S
C588        H594   1.081       .  S
C588        C589   1.360       .  D
C590        H595   1.075       .  S
C590        C591   1.352       .  D
C591        C619   1.574       .  S
C596        C598   1.559       .  S
C596        C600   1.547       .  S
C596        C599   1.612       .  S
C597        C601   1.523       .  S
C597        C603   1.519       .  S
C597        C602   1.562       .  S
C598        C606   1.403       .  A
C598        C601   1.370       .  A
C599        C602   1.425       .  A
C600        C614   1.398       .  A
C600        C603   1.377       .  A
C601        C604   1.382       .  A
C603        C611   1.382       .  A
C604        N605   1.358       .  A
C604        H617   1.074       .  S
N605        C606   1.371       .  A
C606        H607   1.083       .  S
C608        N609   1.361       .  A
C608        H618   1.081       .  S
N609        C610   1.383       .  A
N609        N632   1.439       .  S
C610        H616   1.082       .  S
C611        N612   1.346       .  A
C611        H613   1.069       .  S
N612        C614   1.364       .  A
C614        H615   1.081       .  S
C619        C621   1.535       .  S
C619        C623   1.539       .  S
C619        C622   1.599       .  S
C620        C624   1.538       .  S
C620        C626   1.552       .  S
C620        C625   1.587       .  S
C621        C629   1.379       .  A
C621        C624   1.376       .  A
C622        C633   1.408       .  A
C622        C625   1.434       .  A
C623        C637   1.389       .  A
C623        C626   1.378       .  A
C624        C627   1.387       .  A
C625        C631   1.407       .  A
C626        C634   1.394       .  A
C627        N628   1.357       .  A
C627        H640   1.077       .  S
N628        C629   1.364       .  A
C629        H630   1.065       .  S
C631        N632   1.375       .  A
C631        H641   1.082       .  S
N632        C633   1.367       .  A
C633        H639   1.077       .  S
C634        N635   1.366       .  A
C634        H636   1.078       .  S
N635        C637   1.366       .  A
C637        H638   1.078       .  S
N642       N1457   1.316       .  A
N642        N648   1.317       .  A
N642      Mn1485   2.150       .  S
N643       C2278   1.349       .  A
N643       N1456   1.317       .  A
N644        N646   1.313       .  A
N644       N2273   1.315       .  A
N644       Mn660   2.179       .  S
N645       C1465   1.339       .  A
N645       N2272   1.315       .  A
N646       N1461   1.335       .  A
N646      Mn1485   2.233       .  S
N647       C2279   1.361       .  A
N647       N1460   1.335   1_545  A
N648       N2277   1.312       .  A
N648       Mn660   2.225       .  S
N649       C1464   1.350       .  A
N649       N2276   1.312       .  A
C650       N2271   1.349       .  A
C650       N1463   1.350       .  A
C651       N1459   1.339   1_545  A
C651       N2275   1.361       .  A
C651        C759   1.494       .  S
N652        N658   1.315       .  A
N652        N653   1.314       .  A
N652       Mn682   2.191       .  S
N653        C661   1.345       .  A
N654       N2283   1.323       .  A
N654        N656   1.316       .  A
N654       Mn660   2.174       .  S
N655       C2290   1.348       .  A
N655       N2282   1.323   1_455  A
N656        N657   1.317       .  A
N656       Mn682   2.212       .  S
N657        C662   1.351       .  A
N658       N2287   1.320       .  A
N658       Mn660   2.168       .  S
N659       C2289   1.350       .  A
N659       N2286   1.320       .  A
Mn660      Cl684   2.473       .  S
C661       N2287   1.350       .  A
C661       C2419   1.458       .  S
C662       N2283   1.348       .  A
C662       C1932   1.472       .  S
N663       N1478   1.309       .  A
N663        N669   1.325       .  A
N663      Mn1485   2.192       .  S
N664        C672   1.346       .  A
N664       N1477   1.309       .  A
N665        N667   1.303       .  A
N665        N666   1.322       .  A
N665       Mn683   2.133   1_554  S
N666       C1487   1.349       .  A
N667       N1482   1.306       .  A
N667      Mn1485   2.160   1_554  S
N668        C673   1.358       .  A
N668       N1481   1.306       .  A
N669        N670   1.326       .  A
N669       Mn683   2.250       .  S
N670       C1486   1.356       .  A
Mn671      N1456   2.146   1_565  S
Mn671      N1460   2.240       .  S
Mn671      N1477   2.195       .  S
Mn671      N1481   2.166   1_556  S
Mn671     Cl1498   2.562       .  S
C672       N1484   1.355       .  A
C672        C727   1.463       .  S
C673       N1480   1.349       .  A
N674        N675   1.325       .  A
N674        N680   1.313       .  A
N674       Mn682   2.186   1_554  S
N675        C685   1.359       .  A
N676        N677   1.318       .  A
N676        N678   1.305       .  A
N676       Mn683   2.170       .  S
N677        C686   1.351       .  A
N678        N679   1.319       .  A
N678       Mn682   2.184       .  S
N679        C686   1.354       .  A
N680        N681   1.313       .  A
N680       Mn683   2.208   1_554  S
N681        C685   1.356       .  A
Mn682      Cl684   2.534       .  S
Mn683      Cl684   2.468       .  S
Cl684     Mn1485   2.562       .  S
C686        C695   1.459       .  S
C687        C688   1.409       .  A
C687        C692   1.413       .  A
C688        C689   1.391       .  A
C688        H697   1.078       .  S
C689        C690   1.397       .  A
C689        H698   1.083       .  S
C690        C696   1.394       .  A
C690        C691   1.411       .  A
C691        C693   1.407       .  A
C691        C692   1.401       .  A
C692        H699   1.084       .  S
C693        C694   1.401       .  A
C693        H700   1.083       .  S
C694        C695   1.400       .  A
C694        H701   1.083       .  S
C695        C696   1.397       .  A
C696        H702   1.084       .  S
C703        C704   1.402       .  A
C703        C708   1.414       .  A
C704        C705   1.398       .  A
C704        H713   1.081       .  S
C705        C706   1.405       .  A
C705        H714   1.074       .  S
C706        C712   1.401       .  A
C706        C707   1.409       .  A
C707        C709   1.405       .  A
C707        C708   1.395       .  A
C708        H715   1.084       .  S
C709        C710   1.400       .  A
C709        H716   1.084       .  S
C710        C711   1.401       .  A
C710       H1938   1.083       .  S
C711        C712   1.409       .  A
C711       C1883   1.473       .  S
C712        H718   1.080       .  S
H717       C1931   1.083       .  S
C719        C720   1.409       .  A
C719        C724   1.411       .  A
C720        C721   1.403       .  A
C720        H729   1.079       .  S
C721        C722   1.403       .  A
C721        H730   1.083       .  S
C722        C728   1.407       .  A
C722        C723   1.409       .  A
C723        C725   1.401       .  A
C723        C724   1.395       .  A
C724        H731   1.084       .  S
C725        C726   1.396       .  A
C725        H732   1.084       .  S
C726        C727   1.401       .  A
C726        H733   1.084       .  S
C727        C728   1.411       .  A
C728       H1548   1.084       .  S
H734       C1542   1.084       .  S
C735        C736   1.409       .  A
C735        C740   1.404       .  A
C736        C737   1.408       .  A
C736        H745   1.083       .  S
C737        C738   1.409       .  A
C737        H746   1.083       .  S
C738        C744   1.404       .  A
C738        C739   1.421       .  A
C739        C741   1.395       .  A
C739        C740   1.407       .  A
C741        C742   1.391       .  A
C741        H748   1.084       .  S
C742        C743   1.415       .  A
C742        H749   1.083       .  S
C743        C744   1.411       .  A
C744        H750   1.079       .  S
C751        C752   1.408       .  A
C751        C756   1.418       .  A
C752        C753   1.417   1_455  A
C752        H761   1.081       .  S
C753        C754   1.414       .  A
C753        H762   1.083       .  S
C754        C760   1.421       .  A
C754        C755   1.407       .  A
C755        C757   1.402       .  A
C755        C756   1.403   1_655  A
C756        H763   1.084       .  S
C757       C2386   1.397       .  A
C757       H2392   1.084       .  S
C758       C2385   1.397       .  A
C758       C2387   1.401       .  A
C758        H765   1.074       .  S
C759       C2386   1.401       .  A
C759        C760   1.415       .  A
C760        H766   1.070       .  S
H764       C2385   1.084       .  S
C767        C768   1.409       .  A
C767        C772   1.419       .  A
C768        C769   1.389       .  A
C768        H777   1.080       .  S
C769        C770   1.396       .  A
C769        H778   1.083       .  S
C770        C776   1.388       .  A
C770        C771   1.413       .  A
C771        C773   1.407       .  A
C771        C772   1.409       .  A
C772        H779   1.083       .  S
C773        C774   1.411   1_545  A
C773        H780   1.083       .  S
C774        C775   1.414       .  A
C774        H781   1.080       .  S
C775        C776   1.391   1_565  A
C776        H782   1.086       .  S
C783        C784   1.410       .  A
C783        C788   1.400       .  A
C784        C785   1.393       .  A
C784        H793   1.079       .  S
C785        C786   1.399   1_455  A
C785        H794   1.084       .  S
C786        C792   1.396       .  A
C786        C787   1.414       .  A
C787        C789   1.394       .  A
C787        C788   1.387   1_655  A
C788        H795   1.085       .  S
C789        C790   1.385       .  A
C789        H796   1.084       .  S
C790        C791   1.403       .  A
C790       H2425   1.078       .  S
C791        C792   1.400       .  A
C791       C2289   1.458       .  S
C792        H798   1.084       .  S
H797       C2418   1.078       .  S
C799        C804   1.398       .  A
C800        H809   1.084       .  S
C801        C802   1.401       .  A
C802        C808   1.387   1_655  A
C802        C803   1.411       .  A
C803        C805   1.400   1_655  A
C803        C804   1.391       .  A
C804       H2439   1.086       .  S
C805        C806   1.394       .  A
C805        H812   1.084   1_455  S
C806        C807   1.408       .  A
C806        H813   1.078       .  S
C807        C808   1.406       .  A
C808        H814   1.085       .  S
H811       C2432   1.086       .  S
C815        C816   1.546       .  S
C815        C821   1.554       .  S
C815        C819   1.538       .  S
C815       C1214   1.500       .  S
C816        H823   1.081       .  S
C816        C817   1.361       .  D
C817        C818   1.599       .  S
C817        C863   1.574       .  S
C818        C822   1.567       .  S
C818        C820   1.581       .  S
C818        H824   1.104       .  S
C819        H825   1.085       .  S
C819        C820   1.341       .  D
C820        C827   1.560       .  S
C821        H826   1.086       .  S
C821        C822   1.358       .  D
C822       N1019   1.467       .  S
C827        C829   1.525       .  S
C827        C831   1.508       .  S
C827        C830   1.593       .  S
C828        C855   1.576       .  S
C828        C832   1.545       .  S
C828        C834   1.506       .  S
C828        C833   1.592       .  S
C829        C837   1.382       .  A
C829        C832   1.397       .  A
C830       C2469   1.401   1_455  A
C830        C833   1.428       .  A
C831        C845   1.364       .  A
C831        C834   1.385       .  A
C832        C835   1.393       .  A
C833       C2467   1.409   1_455  A
C834        C842   1.373       .  A
C835        N836   1.358       .  A
C835        H848   1.081       .  S
N836        C981   1.450       .  S
N836        C837   1.352       .  A
C837        H838   1.082       .  S
C839       C2461   1.409       .  A
C839        N840   1.374       .  A
C839        H849   1.081       .  S
N840        C841   1.373       .  A
N840        N922   1.443       .  S
C841       C2458   1.401       .  A
C841        H847   1.081       .  S
C842        N843   1.334       .  A
C842        H844   1.078       .  S
N843        C899   1.420       .  S
N843        C845   1.336       .  A
C845        H846   1.060       .  S
C850        C851   1.538       .  S
C850        C856   1.560       .  S
C850        C854   1.536       .  S
C850       C1190   1.510       .  S
C851        H858   1.071       .  S
C851        C852   1.350       .  D
C852        C853   1.588       .  S
C852        C956   1.564       .  S
C853        C857   1.589       .  S
C853        C855   1.609       .  S
C853        H859   1.107       .  S
C854        H860   1.085       .  S
C854        C855   1.349       .  D
C856        H861   1.086       .  S
C856        C857   1.364       .  D
C857       N1042   1.491       .  S
C862        C946   1.507       .  S
C862        C864   1.500       .  S
C862        C866   1.532       .  S
C862        C865   1.542       .  S
C863        C867   1.556       .  S
C863        C869   1.537       .  S
C863        C868   1.633       .  S
C864        C872   1.369       .  A
C864        C867   1.359       .  A
C865        C868   1.422       .  A
C866        C880   1.378       .  A
C866        C869   1.385       .  A
C867        C870   1.385       .  A
C869        C877   1.390       .  A
C870        N871   1.352       .  A
C870        H883   1.049       .  S
N871        C890   1.452       .  S
N871        C872   1.350       .  A
C872        H873   1.073       .  S
C874        N875   1.389       .  A
C874        H884   1.081       .  S
N875        C876   1.354       .  A
N875        N969   1.444       .  S
C876        H882   1.079       .  S
C877        N878   1.360       .  A
C877        H879   1.081       .  S
N878        C902   1.450       .  S
N878        C880   1.352       .  A
C880        H881   1.077       .  S
C885        C886   1.536       .  S
C885        C891   1.554       .  S
C885        C889   1.557       .  S
C885       C1174   1.523       .  S
C886        H893   1.084       .  S
C886        C887   1.364       .  D
C887        C888   1.593       .  S
C887        C910   1.557       .  S
C888        C892   1.596       .  S
C888        C890   1.526       .  S
C888        H894   1.107       .  S
C889        H895   1.073       .  S
C889        C890   1.341       .  D
C891        H896   1.083       .  S
C891        C892   1.350       .  D
C892       C1003   1.569       .  S
C897        C898   1.542       .  S
C897        C903   1.583       .  S
C897        C901   1.559       .  S
C897       C1158   1.543       .  S
C898        H905   1.087       .  S
C898        C899   1.346       .  D
C899        C900   1.509       .  S
C900        C904   1.562       .  S
C900        C902   1.526       .  S
C900        H906   1.111       .  S
C901        H907   1.086       .  S
C901        C902   1.363       .  D
C903        H908   1.084       .  S
C903        C904   1.389       .  D
C904       C1027   1.567       .  S
C909        C993   1.589       .  S
C909        C911   1.495       .  S
C909        C913   1.539       .  S
C909        C912   1.602       .  S
C910        C914   1.509       .  S
C910        C916   1.531       .  S
C910        C915   1.583       .  S
C911        C919   1.358       .  A
C911        C914   1.376       .  A
C912        C923   1.414       .  A
C912        C915   1.428       .  A
C913        C927   1.380       .  A
C913        C916   1.400       .  A
C914        C917   1.358       .  A
C915        C921   1.396       .  A
C916        C924   1.377       .  A
C917        N918   1.329       .  A
C917        H930   1.058       .  S
N918        C937   1.400       .  S
N918        C919   1.328       .  A
C919        H920   1.081       .  S
C921        N922   1.368       .  A
C921        H931   1.081       .  S
N922        C923   1.379       .  A
C923        H929   1.082       .  S
C924        N925   1.356       .  A
C924        H926   1.080       .  S
N925        C949   1.442       .  S
N925        C927   1.355       .  A
C927        H928   1.081       .  S
C932        C933   1.568       .  S
C932        C938   1.575       .  S
C932        C936   1.519       .  S
C932       C1150   1.517       .  S
C933        H940   1.083       .  S
C933        C934   1.369       .  D
C934        C935   1.572       .  S
C934        C957   1.547       .  S
C935        C939   1.525       .  S
C935        C937   1.497       .  S
C935        H941   1.109       .  S
C936        H942   1.089       .  S
C936        C937   1.333       .  D
C938        H943   1.085       .  S
C938        C939   1.379       .  D
C939       N1012   1.465       .  S
C944        C945   1.529       .  S
C944        C950   1.565       .  S
C944        C948   1.557       .  S
C944       C1126   1.527       .  S
C945        H952   1.078       .  S
C945        C946   1.344       .  D
C946        C947   1.557       .  S
C947        C951   1.526       .  S
C947        C949   1.532       .  S
C947        H953   1.111       .  S
C948        H954   1.078       .  S
C948        C949   1.367       .  D
C950        H955   1.085       .  S
C950        C951   1.372       .  D
C951       N1035   1.457       .  S
C956        C958   1.502       .  S
C956        C960   1.541       .  S
C956        C959   1.640       .  S
C957        C961   1.531       .  S
C957        C963   1.552       .  S
C957        C962   1.557       .  S
C958        C966   1.361       .  A
C958        C961   1.367       .  A
C959        C970   1.426       .  A
C959        C962   1.431       .  A
C960        C974   1.387       .  A
C960        C963   1.368       .  A
C961        C964   1.375       .  A
C962        C968   1.396       .  A
C963        C971   1.392       .  A
C964        N965   1.347       .  A
C964        H977   1.079       .  S
N965        C984   1.430       .  S
N965        C966   1.354       .  A
C966        H967   1.060       .  S
C968        N969   1.368       .  A
C968        H978   1.082       .  S
N969        C970   1.381       .  A
C970        H976   1.079       .  S
C971        N972   1.368       .  A
C971        H973   1.081       .  S
N972        C996   1.480       .  S
N972        C974   1.358       .  A
C974        H975   1.060       .  S
C979        C980   1.568   1_556  S
C979        C985   1.532       .  S
C979        C983   1.548   1_556  S
C979       C1110   1.516       .  S
C980        H987   1.084       .  S
C980        C981   1.379       .  D
C981        C982   1.529       .  S
C982        C986   1.558       .  S
C982        C984   1.520       .  S
C982        H988   1.110       .  S
C983        H989   1.086       .  S
C983        C984   1.347       .  D
C985        H990   1.085       .  S
C985        C986   1.352   1_556  D
C986       C1004   1.516       .  S
C991        C992   1.542       .  S
C991        C997   1.541       .  S
C991        C995   1.551       .  S
C991       C1094   1.518       .  S
C992        H999   1.085       .  S
C992        C993   1.358       .  D
C993        C994   1.623       .  S
C994        C998   1.584       .  S
C994        C996   1.576       .  S
C994       H1000   1.110       .  S
C995       H1001   1.081       .  S
C995        C996   1.358       .  D
C997       H1002   1.075       .  S
C997        C998   1.352       .  D
C998       C1026   1.570       .  S
C1003      C1005   1.558       .  S
C1003      C1007   1.546       .  S
C1003      C1006   1.610   1_554  S
C1004      C1008   1.525       .  S
C1004      C1010   1.518       .  S
C1004      C1009   1.565   1_554  S
C1005      C1013   1.403       .  A
C1005      C1008   1.370       .  A
C1006      C1424   1.418       .  A
C1006      C1009   1.425       .  A
C1007      C1021   1.398       .  A
C1007      C1010   1.377       .  A
C1008      C1011   1.383       .  A
C1009      C1422   1.394       .  A
C1010      C1018   1.381       .  A
C1011      N1012   1.360       .  A
C1011      H1024   1.074       .  S
N1012      C1013   1.371       .  A
C1013      H1014   1.082       .  S
C1015      C1416   1.393       .  A
C1015      N1016   1.361       .  A
C1015      H1025   1.081       .  S
N1016      C1017   1.383       .  A
N1016      N1039   1.440       .  S
C1017      C1413   1.419       .  A
C1017      H1023   1.082       .  S
C1018      N1019   1.344       .  A
C1018      H1020   1.068       .  S
N1019      C1021   1.363       .  A
C1021      H1022   1.081       .  S
C1026      C1028   1.534       .  S
C1026      C1030   1.541       .  S
C1026      C1029   1.601       .  S
C1027      C1031   1.540       .  S
C1027      C1033   1.556       .  S
C1027      C1032   1.586       .  S
C1028      C1036   1.380       .  A
C1028      C1031   1.373       .  A
C1029      C1040   1.409       .  A
C1029      C1032   1.433       .  A
C1030      C1044   1.391       .  A
C1030      C1033   1.377       .  A
C1031      C1034   1.389       .  A
C1032      C1038   1.408       .  A
C1033      C1041   1.397       .  A
C1034      N1035   1.358       .  A
C1034      H1047   1.078       .  S
N1035      C1036   1.364       .  A
C1036      H1037   1.065       .  S
C1038      N1039   1.376       .  A
C1038      H1048   1.082       .  S
N1039      C1040   1.367       .  A
C1040      H1046   1.077       .  S
C1041      N1042   1.367       .  A
C1041      H1043   1.078       .  S
N1042      C1044   1.367       .  A
C1044      H1045   1.077       .  S
N1049      N1055   1.316       .  A
N1050      C2685   1.349       .  A
N1051      N1053   1.313       .  A
N1051      N2680   1.314       .  A
N1051     Mn1067   2.178       .  S
N1052      N2679   1.314       .  A
N1054      C2686   1.360       .  A
N1055      N2684   1.312       .  A
N1055     Mn1067   2.227   1_545  S
N1056      N2683   1.312       .  A
C1057      N2678   1.349       .  A
C1057      C1613   1.441       .  S
C1058      N2682   1.360       .  A
C1058      C1166   1.493       .  S
N1059      N1065   1.314       .  A
N1059      N1060   1.315       .  A
N1059     Mn1089   2.195       .  S
N1060      C1068   1.346       .  A
N1061      N2690   1.323       .  A
N1061      N1063   1.315       .  A
N1061     Mn1067   2.175       .  S
N1062      C2697   1.350       .  A
N1062      N2689   1.323   1_455  A
N1063      N1064   1.316       .  A
N1063     Mn1089   2.210       .  S
N1064      C1069   1.350       .  A
N1065      N2694   1.319       .  A
N1065     Mn1067   2.161       .  S
N1066      C2696   1.349       .  A
N1066      N2693   1.319       .  A
Mn1067    Cl1091   2.478       .  S
C1068      N2694   1.349       .  A
C1068      C2826   1.457       .  S
C1069      N2690   1.350       .  A
C1069      C3153   1.470       .  S
N1070      N1076   1.326       .  A
N1071      C1079   1.347       .  A
N1072      N1074   1.304       .  A
N1072      N1073   1.322       .  A
N1072     Mn1090   2.133       .  S
N1075      C1080   1.358       .  A
N1076      N1077   1.327       .  A
N1076     Mn1090   2.251       .  S
C1079      C1134   1.462       .  S
C1080      C1589   1.476       .  S
N1081      N1082   1.324       .  A
N1081      N1087   1.313       .  A
N1081     Mn1089   2.176       .  S
N1082      C1092   1.355       .  A
N1083      N1084   1.317       .  A
N1083      N1085   1.305       .  A
N1083     Mn1090   2.167       .  S
N1084      C1093   1.351       .  A
N1085      N1086   1.318       .  A
N1085     Mn1089   2.180       .  S
N1086      C1093   1.354       .  A
N1087      N1088   1.315       .  A
N1087     Mn1090   2.217       .  S
N1088      C1092   1.359       .  A
Mn1089    Cl1091   2.525       .  S
Mn1090    Cl1091   2.475       .  S
C1092      C1549   1.485       .  S
C1093      C1102   1.454       .  S
C1094      C1095   1.408       .  A
C1094      C1099   1.411       .  A
C1095      C1096   1.389       .  A
C1095      H1104   1.078       .  S
C1096      C1097   1.397       .  A
C1096      H1105   1.083       .  S
C1097      C1103   1.391       .  A
C1097      C1098   1.411       .  A
C1098      C1100   1.406       .  A
C1098      C1099   1.398       .  A
C1099      H1106   1.084       .  S
C1100      C1101   1.399       .  A
C1100      H1107   1.084       .  S
C1101      C1102   1.399       .  A
C1101      H1108   1.083       .  S
C1102      C1103   1.396       .  A
C1103      H1109   1.085       .  S
C1110      C1111   1.401       .  A
C1110      C1115   1.414       .  A
C1111      C1112   1.398       .  A
C1111      H1120   1.082       .  S
C1112      C1113   1.405       .  A
C1112      H1121   1.074       .  S
C1113      C1119   1.400       .  A
C1113      C1114   1.409       .  A
C1114      C1116   1.405       .  A
C1114      C1115   1.394       .  A
C1115      H1122   1.085       .  S
C1116      C1117   1.399       .  A
C1116      H1123   1.084       .  S
C1117      C1118   1.401       .  A
C1117      H3159   1.083       .  S
C1118      C1119   1.409       .  A
C1118      C3104   1.471       .  S
C1119      H1125   1.080       .  S
H1124      C3152   1.083       .  S
C1126      C1127   1.408       .  A
C1126      C1131   1.412       .  A
C1127      C1128   1.402       .  A
C1127      H1136   1.078       .  S
C1128      C1129   1.402       .  A
C1128      H1137   1.082       .  S
C1129      C1135   1.405       .  A
C1129      C1130   1.408       .  A
C1130      C1132   1.402       .  A
C1130      C1131   1.396       .  A
C1131      H1138   1.084       .  S
C1132      C1133   1.397       .  A
C1132      H1139   1.084       .  S
C1133      C1134   1.402       .  A
C1133      H1140   1.084       .  S
C1134      C1135   1.410       .  A
C1142      C1143   1.408       .  A
C1142      C1147   1.403       .  A
C1142      C1499   1.485       .  S
C1143      C1144   1.407       .  A
C1143      H1152   1.083       .  S
C1144      C1145   1.409       .  A
C1144      H1153   1.082       .  S
C1145      C1151   1.402       .  A
C1145      C1146   1.422       .  A
C1146      C1148   1.395       .  A
C1146      C1147   1.406       .  A
C1147      H1561   1.085       .  S
C1148      C1149   1.392       .  A
C1148      H1155   1.084       .  S
C1149      C1150   1.414       .  A
C1149      H1156   1.083       .  S
C1150      C1151   1.411       .  A
C1151      H1157   1.078       .  S
H1154      C1554   1.085       .  S
C1158      C1159   1.408       .  A
C1158      C1163   1.415       .  A
C1159      C1160   1.417   1_455  A
C1159      H1168   1.081       .  S
C1160      C1161   1.414       .  A
C1160      H1169   1.083       .  S
C1161      C1167   1.422       .  A
C1161      C1162   1.408       .  A
C1162      C1164   1.400       .  A
C1162      C1163   1.400   1_655  A
C1163      H1170   1.085       .  S
C1164      C2793   1.394       .  A
C1164      H2799   1.084       .  S
C1165      C2792   1.394       .  A
C1165      C2794   1.401       .  A
C1165      H1172   1.073       .  S
C1166      C2793   1.401       .  A
C1166      C1167   1.417       .  A
C1167      H1173   1.074       .  S
H1171      C2792   1.084       .  S
C1174      C1175   1.407       .  A
C1174      C1179   1.418       .  A
C1175      C1176   1.389       .  A
C1175      H1184   1.080   1_554  S
C1176      C1177   1.397       .  A
C1176      H1185   1.083       .  S
C1177      C1183   1.388       .  A
C1177      C1178   1.414       .  A
C1178      C1180   1.407       .  A
C1178      C1179   1.409       .  A
C1179      H1186   1.083       .  S
C1180      C1181   1.410       .  A
C1180      H1187   1.083       .  S
C1181      C1182   1.414       .  A
C1181      H1188   1.080       .  S
C1182      C1183   1.393       .  A
C1182      C1487   1.476       .  S
C1183      H1189   1.086       .  S
C1190      C1191   1.413       .  A
C1190      C1195   1.399       .  A
C1191      C1192   1.393       .  A
C1191      H1200   1.078       .  S
C1192      C1193   1.397   1_455  A
C1192      H1201   1.084       .  S
C1193      C1199   1.397       .  A
C1193      C1194   1.414   1_655  A
C1194      C1196   1.394   1_455  A
C1194      C1195   1.389       .  A
C1195      H1202   1.085       .  S
C1196      C1197   1.385       .  A
C1196      H1203   1.084       .  S
C1197      C1198   1.401       .  A
C1197      H2832   1.077       .  S
C1198      C1199   1.400       .  A
C1198      C2696   1.457       .  S
C1199      H1205   1.085       .  S
H1204      C2825   1.077       .  S
C1206      C1614   1.397       .  A
C1206      C1211   1.399   1_556  A
C1206      C1464   1.439       .  S
C1207      C1613   1.397       .  A
C1207      C1615   1.386       .  A
C1207      H1216   1.084       .  S
C1208      C1614   1.387       .  A
C1208      C1209   1.399   1_556  A
C1208      H1624   1.084       .  S
C1209      C1215   1.383   1_655  A
C1209      C1210   1.412       .  A
C1210      C1212   1.401       .  A
C1210      C1211   1.393       .  A
C1211      H2846   1.085       .  S
C1212      C1213   1.395   1_655  A
C1212      H1219   1.084       .  S
C1213      C1214   1.409       .  A
C1213      H1220   1.080       .  S
C1214      C1215   1.403       .  A
C1215      H1221   1.084       .  S
H1217      C1615   1.084       .  S
H1218      C2839   1.085       .  S
C1222      C1223   1.546       .  S
C1222      C1228   1.554       .  S
C1222      C1226   1.538       .  S
C1222      C1621   1.501       .  S
C1223      H1230   1.081       .  S
C1223      C1224   1.362       .  D
C1224      C1225   1.598       .  S
C1224      C1270   1.575       .  S
C1225      C1229   1.566       .  S
C1225      C1227   1.580       .  S
C1225      H1231   1.104       .  S
C1226      H1232   1.085       .  S
C1226      C1227   1.341       .  D
C1227      C1234   1.560       .  S
C1228      H1233   1.086       .  S
C1228      C1229   1.358       .  D
C1229      N1426   1.466       .  S
C1234      C1236   1.524       .  S
C1234      C1238   1.508       .  S
C1234      C1237   1.594       .  S
C1235      C1262   1.577       .  S
C1235      C1239   1.543       .  S
C1235      C1241   1.505       .  S
C1235      C1240   1.593       .  S
C1236      C1244   1.381       .  A
C1236      C1239   1.397       .  A
C1237      C2876   1.402   1_455  A
C1237      C1240   1.428       .  A
C1238      C1252   1.364       .  A
C1238      C1241   1.385       .  A
C1239      C1242   1.392       .  A
C1240      C2874   1.410   1_455  A
C1241      C1249   1.372       .  A
C1242      N1243   1.357       .  A
C1242      H1255   1.082       .  S
N1243      C1388   1.447       .  S
N1243      C1244   1.352       .  A
C1244      H1245   1.082       .  S
C1246      C2868   1.409       .  A
C1246      N1247   1.374       .  A
C1246      H1256   1.081       .  S
N1247      C1248   1.373       .  A
N1247      N1329   1.443       .  S
C1248      C2865   1.402       .  A
C1248      H1254   1.081       .  S
C1249      N1250   1.334       .  A
C1249      H1251   1.078       .  S
N1250      C1306   1.419       .  S
N1250      C1252   1.336       .  A
C1252      H1253   1.061       .  S
C1257      C1258   1.538       .  S
C1257      C1263   1.560       .  S
C1257      C1261   1.536       .  S
C1257      C1597   1.511       .  S
C1258      H1265   1.070       .  S
C1258      C1259   1.350       .  D
C1259      C1260   1.588       .  S
C1259      C1363   1.565       .  S
C1260      C1264   1.587       .  S
C1260      C1262   1.610       .  S
C1260      H1266   1.108       .  S
C1261      H1267   1.084       .  S
C1261      C1262   1.350       .  D
C1263      H1268   1.086       .  S
C1263      C1264   1.363       .  D
C1264      N1449   1.490       .  S
C1269      C1353   1.508       .  S
C1269      C1271   1.501       .  S
C1269      C1273   1.533       .  S
C1269      C1272   1.542       .  S
C1270      C1274   1.557       .  S
C1270      C1276   1.538       .  S
C1270      C1275   1.632       .  S
C1271      C1279   1.370       .  A
C1271      C1274   1.360       .  A
C1272      C1275   1.422       .  A
C1273      C1287   1.379       .  A
C1273      C1276   1.386       .  A
C1274      C1277   1.385       .  A
C1276      C1284   1.390       .  A
C1277      N1278   1.352       .  A
C1277      H1290   1.049       .  S
N1278      C1297   1.453       .  S
N1278      C1279   1.350       .  A
C1279      H1280   1.073       .  S
C1281      N1282   1.389       .  A
C1281      H1291   1.081       .  S
N1282      C1283   1.353       .  A
N1282      N1376   1.444       .  S
C1283      H1289   1.078       .  S
C1284      N1285   1.360       .  A
C1284      H1286   1.081       .  S
N1285      C1309   1.450       .  S
N1285      C1287   1.352       .  A
C1287      H1288   1.077       .  S
C1292      C1293   1.536       .  S
C1292      C1298   1.553       .  S
C1292      C1296   1.559       .  S
C1292      C1581   1.524       .  S
C1293      H1300   1.084       .  S
C1293      C1294   1.364       .  D
C1294      C1295   1.595       .  S
C1294      C1317   1.559       .  S
C1295      C1299   1.597       .  S
C1295      C1297   1.525       .  S
C1295      H1301   1.107       .  S
C1296      H1302   1.073       .  S
C1296      C1297   1.342       .  D
C1298      H1303   1.082       .  S
C1298      C1299   1.347       .  D
C1299      C1410   1.569       .  S
C1304      C1305   1.542       .  S
C1304      C1310   1.584       .  S
C1304      C1308   1.559       .  S
C1304      C1565   1.545       .  S
C1305      H1312   1.087       .  S
C1305      C1306   1.347       .  D
C1306      C1307   1.509       .  S
C1307      C1311   1.561       .  S
C1307      C1309   1.525       .  S
C1307      H1313   1.111       .  S
C1308      H1314   1.086       .  S
C1308      C1309   1.363       .  D
C1310      H1315   1.084       .  S
C1310      C1311   1.389       .  D
C1311      C1434   1.568       .  S
C1316      C1400   1.592       .  S
C1316      C1318   1.496       .  S
C1316      C1320   1.539       .  S
C1316      C1319   1.602       .  S
C1317      C1321   1.510       .  S
C1317      C1323   1.532       .  S
C1317      C1322   1.583       .  S
C1318      C1326   1.358       .  A
C1318      C1321   1.376       .  A
C1319      C1330   1.415       .  A
C1319      C1322   1.428       .  A
C1320      C1334   1.380       .  A
C1320      C1323   1.400       .  A
C1321      C1324   1.360       .  A
C1322      C1328   1.397       .  A
C1323      C1331   1.377       .  A
C1324      N1325   1.329       .  A
C1324      H1337   1.057       .  S
N1325      C1344   1.400       .  S
N1325      C1326   1.328       .  A
C1326      H1327   1.081       .  S
C1328      N1329   1.368       .  A
C1328      H1338   1.081       .  S
N1329      C1330   1.380       .  A
C1330      H1336   1.082       .  S
C1331      N1332   1.357       .  A
C1331      H1333   1.080       .  S
N1332      C1356   1.443       .  S
N1332      C1334   1.356       .  A
C1334      H1335   1.080       .  S
C1339      C1340   1.569       .  S
C1339      C1345   1.573       .  S
C1339      C1343   1.519       .  S
C1339      C1557   1.516       .  S
C1340      H1347   1.083       .  S
C1340      C1341   1.372       .  D
C1341      C1342   1.573       .  S
C1341      C1364   1.550       .  S
C1342      C1346   1.525       .  S
C1342      C1344   1.497       .  S
C1342      H1348   1.109       .  S
C1343      H1349   1.089       .  S
C1343      C1344   1.333       .  D
C1345      H1350   1.085       .  S
C1345      C1346   1.376       .  D
C1346      N1419   1.463       .  S
C1351      C1352   1.530       .  S
C1351      C1357   1.564       .  S
C1351      C1355   1.557       .  S
C1351      C1533   1.527       .  S
C1352      H1359   1.078       .  S
C1352      C1353   1.345       .  D
C1353      C1354   1.556       .  S
C1354      C1358   1.526       .  S
C1354      C1356   1.533       .  S
C1354      H1360   1.111       .  S
C1355      H1361   1.078       .  S
C1355      C1356   1.368       .  D
C1357      H1362   1.085       .  S
C1357      C1358   1.371       .  D
C1358      N1442   1.456       .  S
C1363      C1365   1.501       .  S
C1363      C1367   1.541       .  S
C1363      C1366   1.640       .  S
C1364      C1368   1.534       .  S
C1364      C1370   1.553       .  S
C1364      C1369   1.558       .  S
C1365      C1373   1.361       .  A
C1365      C1368   1.367       .  A
C1366      C1377   1.427       .  A
C1366      C1369   1.432       .  A
C1367      C1381   1.386       .  A
C1367      C1370   1.368       .  A
C1368      C1371   1.377       .  A
C1369      C1375   1.396       .  A
C1370      C1378   1.393       .  A
C1371      N1372   1.348       .  A
C1371      H1384   1.079       .  S
N1372      C1391   1.432       .  S
N1372      C1373   1.354       .  A
C1373      H1374   1.060       .  S
C1375      N1376   1.368       .  A
C1375      H1385   1.082       .  S
N1376      C1377   1.380       .  A
C1377      H1383   1.079       .  S
C1378      N1379   1.368       .  A
C1378      H1380   1.081       .  S
N1379      C1403   1.480       .  S
N1379      C1381   1.358       .  A
C1381      H1382   1.060       .  S
C1386      C1387   1.567       .  S
C1386      C1392   1.534       .  S
C1386      C1390   1.549       .  S
C1386      C1517   1.516       .  S
C1387      H1394   1.084       .  S
C1387      C1388   1.377       .  D
C1388      C1389   1.530       .  S
C1389      C1393   1.558       .  S
C1389      C1391   1.521       .  S
C1389      H1395   1.110       .  S
C1390      H1396   1.086       .  S
C1390      C1391   1.348       .  D
C1392      H1397   1.085       .  S
C1392      C1393   1.354       .  D
C1393      C1411   1.517       .  S
C1398      C1399   1.542       .  S
C1398      C1404   1.542       .  S
C1398      C1402   1.552       .  S
C1398      C1501   1.520       .  S
C1399      H1406   1.085       .  S
C1399      C1400   1.359       .  D
C1400      C1401   1.624       .  S
C1401      C1405   1.585       .  S
C1401      C1403   1.575       .  S
C1401      H1407   1.110       .  S
C1402      H1408   1.081       .  S
C1402      C1403   1.359       .  D
C1404      H1409   1.075       .  S
C1404      C1405   1.351       .  D
C1405      C1433   1.571       .  S
C1410      C1412   1.556       .  S
C1410      C1414   1.546       .  S
C1410      C1413   1.611       .  S
C1411      C1415   1.524       .  S
C1411      C1417   1.518       .  S
C1411      C1416   1.564       .  S
C1412      C1420   1.402       .  A
C1412      C1415   1.370       .  A
C1413      C1416   1.425       .  A
C1414      C1428   1.398       .  A
C1414      C1417   1.377       .  A
C1415      C1418   1.382       .  A
C1417      C1425   1.381       .  A
C1418      N1419   1.359       .  A
C1418      H1431   1.074       .  S
N1419      C1420   1.370       .  A
C1420      H1421   1.082       .  S
C1422      N1423   1.362       .  A
C1422      H1432   1.081       .  S
N1423      C1424   1.383       .  A
N1423      N1446   1.440       .  S
C1424      H1430   1.082       .  S
C1425      N1426   1.344       .  A
C1425      H1427   1.069       .  S
N1426      C1428   1.363       .  A
C1428      H1429   1.081       .  S
C1433      C1435   1.533       .  S
C1433      C1437   1.540       .  S
C1433      C1436   1.601       .  S
C1434      C1438   1.541       .  S
C1434      C1440   1.555       .  S
C1434      C1439   1.587       .  S
C1435      C1443   1.380       .  A
C1435      C1438   1.374       .  A
C1436      C1447   1.408       .  A
C1436      C1439   1.433       .  A
C1437      C1451   1.391       .  A
C1437      C1440   1.378       .  A
C1438      C1441   1.388       .  A
C1439      C1445   1.408       .  A
C1440      C1448   1.396       .  A
C1441      N1442   1.358       .  A
C1441      H1454   1.077       .  S
N1442      C1443   1.363       .  A
C1443      H1444   1.066       .  S
C1445      N1446   1.376       .  A
C1445      H1455   1.082       .  S
N1446      C1447   1.367       .  A
C1447      H1453   1.077       .  S
C1448      N1449   1.367       .  A
C1448      H1450   1.078       .  S
N1449      C1451   1.366       .  A
C1451      H1452   1.078       .  S
N1456      N1462   1.317       .  A
N1457      C3092   1.350       .  A
N1458      N1460   1.313       .  A
N1458      N3087   1.315       .  A
N1458     Mn1474   2.177       .  S
N1459      N3086   1.315       .  A
N1461      C3093   1.360       .  A
N1462      N3091   1.312       .  A
N1462     Mn1474   2.228   1_545  S
N1463      N3090   1.312       .  A
C1464      N3085   1.350       .  A
C1465      N3089   1.360       .  A
C1465      C1573   1.494       .  S
N1466      N1472   1.315       .  A
N1466      N1467   1.315       .  A
N1466     Mn1496   2.197       .  S
N1467      C1475   1.346       .  A
N1468      N3097   1.323       .  A
N1468      N1470   1.315       .  A
N1468     Mn1474   2.175       .  S
N1469      C3104   1.349       .  A
N1469      N3096   1.323   1_455  A
N1470      N1471   1.316       .  A
N1470     Mn1496   2.209       .  S
N1471      C1476   1.350       .  A
N1472      N3101   1.319       .  A
N1472     Mn1474   2.164       .  S
N1473      C3103   1.349       .  A
N1473      N3100   1.319       .  A
Mn1474    Cl1498   2.477       .  S
C1475      N3101   1.349       .  A
C1475      C3233   1.458       .  S
C1476      N3097   1.349       .  A
C1476      C2746   1.471       .  S
N1477      N1483   1.327       .  A
N1478      C1486   1.347       .  A
N1479      N1481   1.303       .  A
N1479      N1480   1.322       .  A
N1479     Mn1497   2.134   1_554  S
N1482      C1487   1.357       .  A
N1483      N1484   1.327       .  A
N1483     Mn1497   2.250       .  S
C1486      C1541   1.462       .  S
N1488      N1489   1.325       .  A
N1488      N1494   1.314       .  A
N1488     Mn1496   2.182   1_554  S
N1489      C1499   1.355       .  A
N1490      N1491   1.318       .  A
N1490      N1492   1.305       .  A
N1490     Mn1497   2.166       .  S
N1491      C1500   1.350       .  A
N1492      N1493   1.318       .  A
N1492     Mn1496   2.181       .  S
N1493      C1500   1.354       .  A
N1494      N1495   1.315       .  A
N1494     Mn1497   2.216   1_554  S
N1495      C1499   1.358       .  A
Mn1496    Cl1498   2.525       .  S
Mn1497    Cl1498   2.475       .  S
C1500      C1509   1.456       .  S
C1501      C1502   1.408       .  A
C1501      C1506   1.412       .  A
C1502      C1503   1.389       .  A
C1502      H1511   1.078       .  S
C1503      C1504   1.397       .  A
C1503      H1512   1.083       .  S
C1504      C1510   1.392       .  A
C1504      C1505   1.411       .  A
C1505      C1507   1.406       .  A
C1505      C1506   1.399       .  A
C1506      H1513   1.084       .  S
C1507      C1508   1.400       .  A
C1507      H1514   1.084       .  S
C1508      C1509   1.399       .  A
C1508      H1515   1.083       .  S
C1509      C1510   1.396       .  A
C1510      H1516   1.084       .  S
C1517      C1518   1.402       .  A
C1517      C1522   1.413       .  A
C1518      C1519   1.398       .  A
C1518      H1527   1.082       .  S
C1519      C1520   1.405       .  A
C1519      H1528   1.075       .  S
C1520      C1526   1.400       .  A
C1520      C1521   1.409       .  A
C1521      C1523   1.405       .  A
C1521      C1522   1.394       .  A
C1522      H1529   1.085       .  S
C1523      C1524   1.399       .  A
C1523      H1530   1.084       .  S
C1524      C1525   1.401       .  A
C1524      H2752   1.083       .  S
C1525      C1526   1.409       .  A
C1525      C2697   1.470       .  S
C1526      H1532   1.081       .  S
H1531      C2745   1.083       .  S
C1533      C1534   1.409       .  A
C1533      C1538   1.411       .  A
C1534      C1535   1.403       .  A
C1534      H1543   1.078       .  S
C1535      C1536   1.402       .  A
C1535      H1544   1.082       .  S
C1536      C1542   1.406       .  A
C1536      C1537   1.409       .  A
C1537      C1539   1.402       .  A
C1537      C1538   1.396       .  A
C1538      H1545   1.084       .  S
C1539      C1540   1.397       .  A
C1539      H1546   1.084       .  S
C1540      C1541   1.402       .  A
C1540      H1547   1.084       .  S
C1541      C1542   1.410       .  A
C1549      C1550   1.408       .  A
C1549      C1554   1.404       .  A
C1550      C1551   1.407       .  A
C1550      H1559   1.083       .  S
C1551      C1552   1.409       .  A
C1551      H1560   1.082       .  S
C1552      C1558   1.402       .  A
C1552      C1553   1.422       .  A
C1553      C1555   1.394       .  A
C1553      C1554   1.406       .  A
C1555      C1556   1.391       .  A
C1555      H1562   1.084       .  S
C1556      C1557   1.415       .  A
C1556      H1563   1.083       .  S
C1557      C1558   1.411       .  A
C1558      H1564   1.079       .  S
C1565      C1566   1.409       .  A
C1565      C1570   1.416       .  A
C1566      C1567   1.417   1_455  A
C1566      H1575   1.081       .  S
C1567      C1568   1.414       .  A
C1567      H1576   1.083       .  S
C1568      C1574   1.423       .  A
C1568      C1569   1.408       .  A
C1569      C1571   1.400       .  A
C1569      C1570   1.402   1_655  A
C1570      H1577   1.085       .  S
C1571      C3200   1.394       .  A
C1571      H3206   1.084       .  S
C1572      C3199   1.394       .  A
C1572      C3201   1.401       .  A
C1572      H1579   1.073       .  S
C1573      C3200   1.401       .  A
C1573      C1574   1.416       .  A
C1574      H1580   1.073       .  S
H1578      C3199   1.084       .  S
C1581      C1582   1.407       .  A
C1581      C1586   1.417       .  A
C1582      C1583   1.389       .  A
C1582      H1591   1.080       .  S
C1583      C1584   1.396       .  A
C1583      H1592   1.083       .  S
C1584      C1590   1.388       .  A
C1584      C1585   1.415       .  A
C1585      C1587   1.406       .  A
C1585      C1586   1.409       .  A
C1586      H1593   1.083       .  S
C1587      C1588   1.409       .  A
C1587      H1594   1.083       .  S
C1588      C1589   1.414       .  A
C1588      H1595   1.080       .  S
C1589      C1590   1.393       .  A
C1590      H1596   1.086       .  S
C1597      C1598   1.413       .  A
C1597      C1602   1.399       .  A
C1598      C1599   1.393       .  A
C1598      H1607   1.078       .  S
C1599      C1600   1.397       .  A
C1599      H1608   1.084       .  S
C1600      C1606   1.397   1_455  A
C1600      C1601   1.414       .  A
C1601      C1603   1.394   1_455  A
C1601      C1602   1.390       .  A
C1602      H1609   1.085       .  S
C1603      C1604   1.386       .  A
C1603      H1610   1.084       .  S
C1604      C1605   1.401       .  A
C1604      H3239   1.077       .  S
C1605      C1606   1.400       .  A
C1605      C3103   1.458       .  S
C1606      H1612   1.085       .  S
H1611      C3232   1.077       .  S
C1613      C1618   1.401       .  A
C1614      H1623   1.084       .  S
C1615      C1616   1.398   1_655  A
C1616      C1622   1.383       .  A
C1616      C1617   1.412   1_455  A
C1617      C1619   1.402       .  A
C1617      C1618   1.395       .  A
C1618      H3253   1.085       .  S
C1619      C1620   1.397   1_655  A
C1619      H1626   1.084       .  S
C1620      C1621   1.409       .  A
C1620      H1627   1.080       .  S
C1621      C1622   1.403       .  A
C1622      H1628   1.084       .  S
H1625      C3246   1.085       .  S
C1629      C1630   1.550       .  S
C1629      C1635   1.553       .  S
C1629      C1633   1.543       .  S
C1629      C2028   1.506       .  S
C1630      H1637   1.080       .  S
C1630      C1631   1.359       .  D
C1631      C1632   1.602       .  S
C1631      C1677   1.581       .  S
C1632      C1636   1.568       .  S
C1632      C1634   1.579       .  S
C1632      H1638   1.103       .  S
C1633      H1639   1.085       .  S
C1633      C1634   1.342       .  D
C1634      C1641   1.564       .  S
C1635      H1640   1.086       .  S
C1635      C1636   1.361       .  D
C1636      N1833   1.469       .  S
C1641      C1643   1.529       .  S
C1641      C1645   1.511       .  S
C1641      C1644   1.596       .  S
C1642      C1669   1.574       .  S
C1642      C1646   1.542       .  S
C1642      C1648   1.503       .  S
C1642      C1647   1.590       .  S
C1643      C1651   1.383       .  A
C1643      C1646   1.398       .  A
C1644      C1647   1.427       .  A
C1645      C1659   1.364       .  A
C1645      C1648   1.383       .  A
C1646      C1649   1.392       .  A
C1648      C1656   1.372       .  A
C1649      N1650   1.357       .  A
C1649      H1662   1.082       .  S
N1650      C1795   1.450       .  S
N1650      C1651   1.354       .  A
C1651      H1652   1.081       .  S
C1653      N1654   1.373       .  A
C1653      H1663   1.081       .  S
N1654      C1655   1.374       .  A
N1654      N1736   1.443       .  S
C1655      H1661   1.081       .  S
C1656      N1657   1.334       .  A
C1656      H1658   1.079       .  S
N1657      C1713   1.421       .  S
N1657      C1659   1.338       .  A
C1659      H1660   1.057       .  S
C1664      C1665   1.540       .  S
C1664      C1670   1.558       .  S
C1664      C1668   1.532       .  S
C1664      C2004   1.507       .  S
C1665      H1672   1.073       .  S
C1665      C1666   1.355       .  D
C1666      C1667   1.588       .  S
C1666      C1770   1.566       .  S
C1667      C1671   1.587       .  S
C1667      C1669   1.610       .  S
C1667      H1673   1.108       .  S
C1668      H1674   1.084       .  S
C1668      C1669   1.347       .  D
C1670      H1675   1.086       .  S
C1670      C1671   1.360       .  D
C1671      N1856   1.488       .  S
C1676      C1760   1.510       .  S
C1676      C1678   1.496       .  S
C1676      C1680   1.530       .  S
C1676      C1679   1.543       .  S
C1677      C1681   1.558       .  S
C1677      C1683   1.544       .  S
C1677      C1682   1.639       .  S
C1678      C1686   1.370       .  A
C1678      C1681   1.358       .  A
C1679      C2504   1.388   1_545  A
C1679      C1682   1.424       .  A
C1680      C1694   1.376       .  A
C1680      C1683   1.382       .  A
C1681      C1684   1.384       .  A
C1682      C2502   1.434   1_545  A
C1683      C1691   1.391       .  A
C1684      N1685   1.350       .  A
C1684      H1697   1.044       .  S
N1685      C1704   1.451       .  S
N1685      C1686   1.349       .  A
C1686      H1687   1.074       .  S
C1688      C2496   1.431       .  A
C1688      N1689   1.387       .  A
C1688      H1698   1.081       .  S
N1689      C1690   1.352       .  A
N1689      N1783   1.440       .  S
C1690      C2493   1.386       .  A
C1690      H1696   1.078       .  S
C1691      N1692   1.364       .  A
C1691      H1693   1.081       .  S
N1692      C1716   1.451       .  S
N1692      C1694   1.354       .  A
C1694      H1695   1.076       .  S
C1699      C1700   1.537       .  S
C1699      C1705   1.554       .  S
C1699      C1703   1.555       .  S
C1699      C1988   1.522       .  S
C1700      H1707   1.084       .  S
C1700      C1701   1.366       .  D
C1701      C1702   1.592       .  S
C1701      C1724   1.558       .  S
C1702      C1706   1.596       .  S
C1702      C1704   1.528       .  S
C1702      H1708   1.107       .  S
C1703      H1709   1.075       .  S
C1703      C1704   1.342       .  D
C1705      H1710   1.082       .  S
C1705      C1706   1.349       .  D
C1706      C1817   1.569       .  S
C1711      C1712   1.543       .  S
C1711      C1717   1.583       .  S
C1711      C1715   1.558       .  S
C1711      C1972   1.545       .  S
C1712      H1719   1.087       .  S
C1712      C1713   1.349       .  D
C1713      C1714   1.510       .  S
C1714      C1718   1.564       .  S
C1714      C1716   1.526       .  S
C1714      H1720   1.111       .  S
C1715      H1721   1.086       .  S
C1715      C1716   1.363       .  D
C1717      H1722   1.084       .  S
C1717      C1718   1.389       .  D
C1718      C1841   1.570       .  S
C1723      C1807   1.591       .  S
C1723      C1725   1.496       .  S
C1723      C1727   1.539       .  S
C1723      C1726   1.603       .  S
C1724      C1728   1.511       .  S
C1724      C1730   1.529       .  S
C1724      C1729   1.583       .  S
C1725      C1733   1.359       .  A
C1725      C1728   1.377       .  A
C1726      C1737   1.414       .  A
C1726      C1729   1.428       .  A
C1727      C1741   1.380       .  A
C1727      C1730   1.399       .  A
C1728      C1731   1.358       .  A
C1729      C1735   1.397       .  A
C1730      C1738   1.376       .  A
C1731      N1732   1.330       .  A
C1731      H1744   1.052       .  S
N1732      C1751   1.401       .  S
N1732      C1733   1.328       .  A
C1733      H1734   1.081       .  S
C1735      N1736   1.368       .  A
C1735      H1745   1.081       .  S
N1736      C1737   1.380       .  A
C1737      H1743   1.082       .  S
C1738      N1739   1.355       .  A
C1738      H1740   1.079       .  S
N1739      C1763   1.443       .  S
N1739      C1741   1.356       .  A
C1741      H1742   1.080       .  S
C1746      C1747   1.570       .  S
C1746      C1752   1.573       .  S
C1746      C1750   1.521       .  S
C1746      C1964   1.518       .  S
C1747      H1754   1.084       .  S
C1747      C1748   1.374       .  D
C1748      C1749   1.572       .  S
C1748      C1771   1.550       .  S
C1749      C1753   1.526       .  S
C1749      C1751   1.496       .  S
C1749      H1755   1.110       .  S
C1750      H1756   1.089       .  S
C1750      C1751   1.334       .  D
C1752      H1757   1.085       .  S
C1752      C1753   1.374       .  D
C1753      N1826   1.464       .  S
C1758      C1759   1.531       .  S
C1758      C1764   1.565       .  S
C1758      C1762   1.557       .  S
C1758      C1940   1.526   1_545  S
C1759      H1766   1.079   1_545  S
C1759      C1760   1.343       .  D
C1760      C1761   1.560       .  S
C1761      C1765   1.524       .  S
C1761      C1763   1.533       .  S
C1761      H1767   1.111       .  S
C1762      H1768   1.078       .  S
C1762      C1763   1.367       .  D
C1764      H1769   1.085       .  S
C1764      C1765   1.371       .  D
C1765      N1849   1.455       .  S
C1770      C1772   1.503       .  S
C1770      C1774   1.542       .  S
C1770      C1773   1.636       .  S
C1771      C1775   1.534       .  S
C1771      C1777   1.552       .  S
C1771      C1776   1.556       .  S
C1772      C1780   1.362       .  A
C1772      C1775   1.368       .  A
C1773      C1784   1.424       .  A
C1773      C1776   1.433       .  A
C1774      C1788   1.386       .  A
C1774      C1777   1.368       .  A
C1775      C1778   1.377       .  A
C1776      C1782   1.393       .  A
C1777      C1785   1.394       .  A
C1778      N1779   1.349       .  A
C1778      H1791   1.079       .  S
N1779      C1798   1.433       .  S
N1779      C1780   1.355       .  A
C1780      H1781   1.059       .  S
C1782      N1783   1.367       .  A
C1782      H1792   1.082       .  S
N1783      C1784   1.380       .  A
C1784      H1790   1.079       .  S
C1785      N1786   1.369       .  A
C1785      H1787   1.081       .  S
N1786      C1810   1.482       .  S
N1786      C1788   1.359       .  A
C1788      H1789   1.059       .  S
C1793      C1794   1.569   1_556  S
C1793      C1799   1.533       .  S
C1793      C1797   1.548   1_556  S
C1793      C1924   1.517       .  S
C1794      H1801   1.084       .  S
C1794      C1795   1.380       .  D
C1795      C1796   1.528       .  S
C1796      C1800   1.556       .  S
C1796      C1798   1.523       .  S
C1796      H1802   1.110       .  S
C1797      H1803   1.086       .  S
C1797      C1798   1.349       .  D
C1799      H1804   1.085       .  S
C1799      C1800   1.352   1_556  D
C1800      C1818   1.514       .  S
C1805      C1806   1.544       .  S
C1805      C1811   1.542       .  S
C1805      C1809   1.553       .  S
C1805      C1908   1.524       .  S
C1806      H1813   1.085       .  S
C1806      C1807   1.360       .  D
C1807      C1808   1.622       .  S
C1808      C1812   1.586       .  S
C1808      C1810   1.576       .  S
C1808      H1814   1.110       .  S
C1809      H1815   1.081       .  S
C1809      C1810   1.360       .  D
C1811      H1816   1.075       .  S
C1811      C1812   1.352       .  D
C1812      C1840   1.575       .  S
C1817      C1819   1.559       .  S
C1817      C1821   1.548       .  S
C1817      C1820   1.611   1_554  S
C1818      C1822   1.522       .  S
C1818      C1824   1.518       .  S
C1818      C1823   1.562   1_554  S
C1819      C1827   1.404       .  A
C1819      C1822   1.369       .  A
C1820      C2238   1.419       .  A
C1820      C1823   1.425       .  A
C1821      C1835   1.399       .  A
C1821      C1824   1.377       .  A
C1822      C1825   1.382       .  A
C1823      C2236   1.392       .  A
C1824      C1832   1.382       .  A
C1825      N1826   1.357       .  A
C1825      H1838   1.074       .  S
N1826      C1827   1.371       .  A
C1827      H1828   1.083       .  S
C1829      C2230   1.392       .  A
C1829      N1830   1.361       .  A
C1829      H1839   1.081       .  S
N1830      C1831   1.384       .  A
N1830      N1853   1.440       .  S
C1831      C2227   1.420       .  A
C1831      H1837   1.082       .  S
C1832      N1833   1.346       .  A
C1832      H1834   1.069       .  S
N1833      C1835   1.364       .  A
C1835      H1836   1.081       .  S
C1840      C1842   1.535       .  S
C1840      C1844   1.541       .  S
C1840      C1843   1.600       .  S
C1841      C1845   1.537       .  S
C1841      C1847   1.552       .  S
C1841      C1846   1.588       .  S
C1842      C1850   1.380       .  A
C1842      C1845   1.376       .  A
C1843      C1854   1.408       .  A
C1843      C1846   1.434       .  A
C1844      C1858   1.390       .  A
C1844      C1847   1.378       .  A
C1845      C1848   1.386       .  A
C1846      C1852   1.408       .  A
C1847      C1855   1.394       .  A
C1848      N1849   1.356       .  A
C1848      H1861   1.077       .  S
N1849      C1850   1.364       .  A
C1850      H1851   1.065       .  S
C1852      N1853   1.376       .  A
C1852      H1862   1.082       .  S
N1853      C1854   1.367       .  A
C1854      H1860   1.077       .  S
C1855      N1856   1.366       .  A
C1855      H1857   1.078       .  S
N1856      C1858   1.366       .  A
C1858      H1859   1.077       .  S
N1863      N2678   1.317       .  A
N1863      N1869   1.319       .  A
N1863     Mn2706   2.154       .  S
N1864      N2677   1.316       .  A
N1865      N1867   1.312       .  A
N1865     Mn1881   2.177       .  S
N1866      C2686   1.339       .  A
N1867      N2682   1.335       .  A
N1867     Mn2706   2.232       .  S
N1868      N2681   1.335   1_545  A
N1869     Mn1881   2.227       .  S
N1870      C2685   1.348       .  A
C1871      N2684   1.350       .  A
C1871      C2427   1.439       .  S
C1872      N2680   1.338   1_545  A
C1872      C1980   1.494       .  S
N1873      N1879   1.315       .  A
N1873      N1874   1.314       .  A
N1873     Mn1903   2.195       .  S
N1874      C1882   1.345       .  A
N1875      N1877   1.316   1_655  A
N1875     Mn1881   2.175       .  S
N1877      N1878   1.317       .  A
N1877     Mn1903   2.212   1_455  S
N1878      C1883   1.350       .  A
N1879     Mn1881   2.163       .  S
Mn1881    Cl1905   2.475       .  S
N1884      N2699   1.309       .  A
N1884      N1890   1.326       .  A
N1884     Mn2706   2.195       .  S
N1885      C1893   1.346       .  A
N1885      N2698   1.309       .  A
N1886      N1888   1.303       .  A
N1886      N1887   1.321       .  A
N1886     Mn1904   2.131       .  S
N1887      C2708   1.349       .  A
N1888      N2703   1.307       .  A
N1888     Mn2706   2.159       .  S
N1889      C1894   1.358       .  A
N1889      N2702   1.305       .  A
N1890      N1891   1.326       .  A
N1890     Mn1904   2.248       .  S
N1891      C2707   1.355       .  A
Mn1892     N2677   2.146   1_565  S
Mn1892     N2681   2.242       .  S
Mn1892     N2698   2.196       .  S
Mn1892     N2702   2.167       .  S
Mn1892    Cl2719   2.563       .  S
C1893      N2705   1.356       .  A
C1893      C1948   1.463       .  S
C1894      N2701   1.349       .  A
C1894      C2403   1.473       .  S
N1895      N1896   1.325       .  A
N1895      N1901   1.313       .  A
N1895     Mn1903   2.187       .  S
N1896      C1906   1.359       .  A
N1897      N1898   1.318       .  A
N1897      N1899   1.305       .  A
N1897     Mn1904   2.168       .  S
N1898      C1907   1.351       .  A
N1899      N1900   1.319       .  A
N1899     Mn1903   2.181       .  S
N1900      C1907   1.354       .  A
N1901      N1902   1.313       .  A
N1901     Mn1904   2.207       .  S
N1902      C1906   1.356       .  A
Mn1903    Cl1905   2.528       .  S
Mn1904    Cl1905   2.469       .  S
Cl1905    Mn2706   2.558       .  S
C1906      C2363   1.485       .  S
C1907      C1916   1.458       .  S
C1908      C1909   1.409       .  A
C1908      C1913   1.413       .  A
C1909      C1910   1.390       .  A
C1909      H1918   1.078       .  S
C1910      C1911   1.397       .  A
C1910      H1919   1.083       .  S
C1911      C1917   1.393       .  A
C1911      C1912   1.411       .  A
C1912      C1914   1.407       .  A
C1912      C1913   1.401       .  A
C1913      H1920   1.084       .  S
C1914      C1915   1.401       .  A
C1914      H1921   1.083       .  S
C1915      C1916   1.399       .  A
C1915      H1922   1.083       .  S
C1916      C1917   1.396       .  A
C1917      H1923   1.083       .  S
C1924      C1925   1.401       .  A
C1924      C1929   1.414       .  A
C1925      C1926   1.399       .  A
C1925      H1934   1.081       .  S
C1926      C1927   1.404       .  A
C1926      H1935   1.074       .  S
C1927      C1933   1.401       .  A
C1927      C1928   1.409       .  A
C1928      C1930   1.405       .  A
C1928      C1929   1.395       .  A
C1929      H1936   1.085       .  S
C1930      C1931   1.400       .  A
C1930      H1937   1.084       .  S
C1931      C1932   1.401       .  A
C1932      C1933   1.409       .  A
C1933      H1939   1.081       .  S
C1940      C1941   1.409       .  A
C1940      C1945   1.411       .  A
C1941      C1942   1.403       .  A
C1941      H1950   1.079       .  S
C1942      C1943   1.403       .  A
C1942      H1951   1.083       .  S
C1943      C1949   1.407       .  A
C1943      C1944   1.409       .  A
C1944      C1946   1.401       .  A
C1944      C1945   1.395       .  A
C1945      H1952   1.085       .  S
C1946      C1947   1.396       .  A
C1946      H1953   1.084       .  S
C1947      C1948   1.402       .  A
C1947      H1954   1.084       .  S
C1948      C1949   1.411       .  A
C1949      H2769   1.084       .  S
H1955      C2763   1.084       .  S
C1956      C1957   1.409       .  A
C1956      C1961   1.404       .  A
C1956      C2313   1.485       .  S
C1957      C1958   1.409       .  A
C1957      H1966   1.083       .  S
C1958      C1959   1.409       .  A
C1958      H1967   1.083       .  S
C1959      C1965   1.405       .  A
C1959      C1960   1.422       .  A
C1960      C1962   1.394       .  A
C1960      C1961   1.407       .  A
C1961      H2375   1.085   1_655  S
C1962      C1963   1.391       .  A
C1962      H1969   1.084       .  S
C1963      C1964   1.415       .  A
C1963      H1970   1.083       .  S
C1964      C1965   1.412       .  A
C1965      H1971   1.080       .  S
H1968      C2368   1.085   1_455  S
C1972      C1973   1.409       .  A
C1972      C1977   1.417       .  A
C1973      C1974   1.417       .  A
C1973      H1982   1.081       .  S
C1974      C1975   1.414       .  A
C1974      H1983   1.083       .  S
C1975      C1981   1.422       .  A
C1975      C1976   1.407       .  A
C1976      C1978   1.401       .  A
C1976      C1977   1.402       .  A
C1977      H1984   1.085       .  S
C1979      H1986   1.073       .  S
C1980      C1981   1.416       .  A
C1981      H1987   1.071       .  S
C1988      C1989   1.407       .  A
C1988      C1993   1.419       .  A
C1989      C1990   1.388       .  A
C1989      H1998   1.080       .  S
C1990      C1991   1.396       .  A
C1990      H1999   1.083       .  S
C1991      C1997   1.387       .  A
C1991      C1992   1.414       .  A
C1992      C1994   1.406       .  A
C1992      C1993   1.409       .  A
C1993      H2000   1.083       .  S
C1994      C1995   1.410   1_545  A
C1994      H2001   1.083       .  S
C1995      C1996   1.413       .  A
C1995      H2002   1.078       .  S
C1996      C1997   1.391   1_565  A
C1996      C2301   1.474       .  S
C1997      H2003   1.086       .  S
C2004      C2005   1.410       .  A
C2004      C2009   1.400       .  A
C2005      C2006   1.393       .  A
C2005      H2014   1.079       .  S
C2006      C2007   1.398       .  A
C2006      H2015   1.084       .  S
C2007      C2013   1.396       .  A
C2007      C2008   1.414       .  A
C2008      C2010   1.394       .  A
C2008      C2009   1.388       .  A
C2009      H2016   1.085       .  S
C2010      C2011   1.385       .  A
C2010      H2017   1.084       .  S
C2011      C2012   1.402       .  A
C2012      C2013   1.400       .  A
C2013      H2019   1.084       .  S
C2020      C2428   1.396       .  A
C2020      C2025   1.399   1_556  A
C2020      C2278   1.438       .  S
C2021      C2427   1.397       .  A
C2021      C2429   1.390       .  A
C2021      H2030   1.084       .  S
C2022      C2428   1.389   1_554  A
C2022      C2023   1.400       .  A
C2022      H2438   1.084   1_554  S
C2023      C2029   1.386       .  A
C2023      C2024   1.412       .  A
C2024      C2026   1.400       .  A
C2024      C2025   1.391       .  A
C2026      C2027   1.394       .  A
C2026      H2033   1.084       .  S
C2027      C2028   1.408       .  A
C2027      H2034   1.078       .  S
C2028      C2029   1.405       .  A
C2029      H2035   1.085       .  S
H2031      C2429   1.084       .  S
C2036      C2037   1.552       .  S
C2036      C2042   1.552       .  S
C2036      C2040   1.541       .  S
C2036      C2435   1.506       .  S
C2037      H2044   1.080       .  S
C2037      C2038   1.361       .  D
C2038      C2039   1.602       .  S
C2038      C2084   1.584       .  S
C2039      C2043   1.568       .  S
C2039      C2041   1.577       .  S
C2039      H2045   1.103       .  S
C2040      H2046   1.085       .  S
C2040      C2041   1.341       .  D
C2041      C2048   1.562       .  S
C2042      H2047   1.086       .  S
C2042      C2043   1.360       .  D
C2043      N2240   1.469       .  S
C2048      C2050   1.529       .  S
C2048      C2052   1.511       .  S
C2048      C2051   1.594       .  S
C2049      C2076   1.573       .  S
C2049      C2053   1.541       .  S
C2049      C2055   1.502       .  S
C2049      C2054   1.590       .  S
C2050      C2058   1.383       .  A
C2050      C2053   1.398       .  A
C2051      C2054   1.427       .  A
C2052      C2066   1.364       .  A
C2052      C2055   1.383       .  A
C2053      C2056   1.390       .  A
C2055      C2063   1.371       .  A
C2056      N2057   1.356       .  A
C2056      H2069   1.082       .  S
N2057      C2202   1.448       .  S
N2057      C2058   1.354       .  A
C2058      H2059   1.081       .  S
C2060      N2061   1.373       .  A
C2060      H2070   1.081       .  S
N2061      C2062   1.373       .  A
N2061      N2143   1.442       .  S
C2062      H2068   1.081       .  S
C2063      N2064   1.333       .  A
C2063      H2065   1.079       .  S
N2064      C2120   1.420       .  S
N2064      C2066   1.337       .  A
C2066      H2067   1.058       .  S
C2071      C2072   1.541       .  S
C2071      C2077   1.558       .  S
C2071      C2075   1.532       .  S
C2071      C2411   1.506       .  S
C2072      H2079   1.074       .  S
C2072      C2073   1.355       .  D
C2073      C2074   1.588       .  S
C2073      C2177   1.566       .  S
C2074      C2078   1.588       .  S
C2074      C2076   1.610       .  S
C2074      H2080   1.108       .  S
C2075      H2081   1.084       .  S
C2075      C2076   1.346       .  D
C2077      H2082   1.086       .  S
C2077      C2078   1.359       .  D
C2078      N2263   1.487       .  S
C2083      C2167   1.514       .  S
C2083      C2085   1.497       .  S
C2083      C2087   1.531       .  S
C2083      C2086   1.544       .  S
C2084      C2088   1.558       .  S
C2084      C2090   1.545       .  S
C2084      C2089   1.639       .  S
C2085      C2093   1.369       .  A
C2085      C2088   1.359       .  A
C2086      C2911   1.388   1_545  A
C2086      C2089   1.424       .  A
C2087      C2101   1.376       .  A
C2087      C2090   1.384       .  A
C2088      C2091   1.385       .  A
C2089      C2909   1.434   1_545  A
C2090      C2098   1.391       .  A
C2091      N2092   1.350       .  A
C2091      H2104   1.043       .  S
N2092      C2111   1.451       .  S
N2092      C2093   1.350       .  A
C2093      H2094   1.074       .  S
C2095      C2903   1.430       .  A
C2095      N2096   1.386       .  A
C2095      H2105   1.081       .  S
N2096      C2097   1.352       .  A
N2096      N2190   1.440       .  S
C2097      C2900   1.386       .  A
C2097      H2103   1.078       .  S
C2098      N2099   1.364       .  A
C2098      H2100   1.081       .  S
N2099      C2123   1.450       .  S
N2099      C2101   1.354       .  A
C2101      H2102   1.076       .  S
C2106      C2107   1.539       .  S
C2106      C2112   1.553       .  S
C2106      C2110   1.553       .  S
C2106      C2395   1.521       .  S
C2107      H2114   1.084       .  S
C2107      C2108   1.366       .  D
C2108      C2109   1.593       .  S
C2108      C2131   1.561       .  S
C2109      C2113   1.598       .  S
C2109      C2111   1.529       .  S
C2109      H2115   1.108       .  S
C2110      H2116   1.074       .  S
C2110      C2111   1.340       .  D
C2112      H2117   1.083       .  S
C2112      C2113   1.349       .  D
C2113      C2224   1.571       .  S
C2118      C2119   1.542       .  S
C2118      C2124   1.584       .  S
C2118      C2122   1.558       .  S
C2118      C2379   1.546       .  S
C2119      H2126   1.087       .  S
C2119      C2120   1.348       .  D
C2120      C2121   1.509       .  S
C2121      C2125   1.563       .  S
C2121      C2123   1.526       .  S
C2121      H2127   1.111       .  S
C2122      H2128   1.086       .  S
C2122      C2123   1.364       .  D
C2124      H2129   1.084       .  S
C2124      C2125   1.389       .  D
C2125      C2248   1.570       .  S
C2130      C2214   1.589       .  S
C2130      C2132   1.496       .  S
C2130      C2134   1.538       .  S
C2130      C2133   1.600       .  S
C2131      C2135   1.510       .  S
C2131      C2137   1.530       .  S
C2131      C2136   1.583       .  S
C2132      C2140   1.360       .  A
C2132      C2135   1.377       .  A
C2133      C2144   1.413       .  A
C2133      C2136   1.429       .  A
C2134      C2148   1.379       .  A
C2134      C2137   1.400       .  A
C2135      C2138   1.357       .  A
C2136      C2142   1.397       .  A
C2137      C2145   1.376       .  A
C2138      N2139   1.330       .  A
C2138      H2151   1.053       .  S
N2139      C2158   1.401       .  S
N2139      C2140   1.329       .  A
C2140      H2141   1.081       .  S
C2142      N2143   1.368       .  A
C2142      H2152   1.081       .  S
N2143      C2144   1.379       .  A
C2144      H2150   1.082       .  S
C2145      N2146   1.355       .  A
C2145      H2147   1.080       .  S
N2146      C2170   1.442       .  S
N2146      C2148   1.355       .  A
C2148      H2149   1.080       .  S
C2153      C2154   1.569       .  S
C2153      C2159   1.573       .  S
C2153      C2157   1.522       .  S
C2153      C2371   1.518       .  S
C2154      H2161   1.083       .  S
C2154      C2155   1.373       .  D
C2155      C2156   1.571       .  S
C2155      C2178   1.548       .  S
C2156      C2160   1.526       .  S
C2156      C2158   1.497       .  S
C2156      H2162   1.110       .  S
C2157      H2163   1.089       .  S
C2157      C2158   1.334       .  D
C2159      H2164   1.085       .  S
C2159      C2160   1.375       .  D
C2160      N2233   1.465       .  S
C2165      C2166   1.533       .  S
C2165      C2171   1.565       .  S
C2165      C2169   1.556       .  S
C2165      C2347   1.527   1_545  S
C2166      H2173   1.079   1_545  S
C2166      C2167   1.344       .  D
C2167      C2168   1.559       .  S
C2168      C2172   1.525       .  S
C2168      C2170   1.534       .  S
C2168      H2174   1.111       .  S
C2169      H2175   1.080       .  S
C2169      C2170   1.367       .  D
C2171      H2176   1.085       .  S
C2171      C2172   1.372       .  D
C2172      N2256   1.455       .  S
C2177      C2179   1.503       .  S
C2177      C2181   1.542       .  S
C2177      C2180   1.636       .  S
C2178      C2182   1.534       .  S
C2178      C2184   1.552       .  S
C2178      C2183   1.554       .  S
C2179      C2187   1.362       .  A
C2179      C2182   1.368       .  A
C2180      C2191   1.424       .  A
C2180      C2183   1.432       .  A
C2181      C2195   1.385       .  A
C2181      C2184   1.367       .  A
C2182      C2185   1.377       .  A
C2183      C2189   1.392       .  A
C2184      C2192   1.394       .  A
C2185      N2186   1.349       .  A
C2185      H2198   1.079       .  S
N2186      C2205   1.433       .  S
N2186      C2187   1.354       .  A
C2187      H2188   1.059       .  S
C2189      N2190   1.366       .  A
C2189      H2199   1.082       .  S
N2190      C2191   1.380       .  A
C2191      H2197   1.079       .  S
C2192      N2193   1.369       .  A
C2192      H2194   1.081       .  S
N2193      C2217   1.482       .  S
N2193      C2195   1.359       .  A
C2195      H2196   1.059       .  S
C2200      C2201   1.568       .  S
C2200      C2206   1.534       .  S
C2200      C2204   1.548       .  S
C2200      C2331   1.517       .  S
C2201      H2208   1.084       .  S
C2201      C2202   1.378       .  D
C2202      C2203   1.529       .  S
C2203      C2207   1.556       .  S
C2203      C2205   1.523       .  S
C2203      H2209   1.110       .  S
C2204      H2210   1.086       .  S
C2204      C2205   1.349       .  D
C2206      H2211   1.084       .  S
C2206      C2207   1.353       .  D
C2207      C2225   1.515       .  S
C2212      C2213   1.544       .  S
C2212      C2218   1.542       .  S
C2212      C2216   1.554       .  S
C2212      C2315   1.525       .  S
C2213      H2220   1.085       .  S
C2213      C2214   1.361       .  D
C2214      C2215   1.619       .  S
C2215      C2219   1.586       .  S
C2215      C2217   1.576       .  S
C2215      H2221   1.110       .  S
C2216      H2222   1.081       .  S
C2216      C2217   1.361       .  D
C2218      H2223   1.075       .  S
C2218      C2219   1.352       .  D
C2219      C2247   1.574       .  S
C2224      C2226   1.558       .  S
C2224      C2228   1.547       .  S
C2224      C2227   1.612       .  S
C2225      C2229   1.523       .  S
C2225      C2231   1.519       .  S
C2225      C2230   1.562       .  S
C2226      C2234   1.403       .  A
C2226      C2229   1.370       .  A
C2227      C2230   1.425       .  A
C2228      C2242   1.398       .  A
C2228      C2231   1.377       .  A
C2229      C2232   1.382       .  A
C2231      C2239   1.382       .  A
C2232      N2233   1.358       .  A
C2232      H2245   1.074       .  S
N2233      C2234   1.371       .  A
C2234      H2235   1.083       .  S
C2236      N2237   1.361       .  A
C2236      H2246   1.081       .  S
N2237      C2238   1.383       .  A
N2237      N2260   1.439       .  S
C2238      H2244   1.082       .  S
C2239      N2240   1.346       .  A
C2239      H2241   1.069       .  S
N2240      C2242   1.364       .  A
C2242      H2243   1.081       .  S
C2247      C2249   1.535       .  S
C2247      C2251   1.539       .  S
C2247      C2250   1.599       .  S
C2248      C2252   1.538       .  S
C2248      C2254   1.552       .  S
C2248      C2253   1.587       .  S
C2249      C2257   1.379       .  A
C2249      C2252   1.376       .  A
C2250      C2261   1.408       .  A
C2250      C2253   1.434       .  A
C2251      C2265   1.389       .  A
C2251      C2254   1.378       .  A
C2252      C2255   1.387       .  A
C2253      C2259   1.407       .  A
C2254      C2262   1.394       .  A
C2255      N2256   1.357       .  A
C2255      H2268   1.077       .  S
N2256      C2257   1.364       .  A
C2257      H2258   1.065       .  S
C2259      N2260   1.375       .  A
C2259      H2269   1.082       .  S
N2260      C2261   1.367       .  A
C2261      H2267   1.077       .  S
C2262      N2263   1.366       .  A
C2262      H2264   1.078       .  S
N2263      C2265   1.366       .  A
C2265      H2266   1.078       .  S
N2270      N3085   1.316       .  A
N2270      N2276   1.317       .  A
N2270     Mn3113   2.150       .  S
N2271      N3084   1.317       .  A
N2272      N2274   1.313       .  A
N2272     Mn2288   2.179       .  S
N2273      C3093   1.339       .  A
N2274      N3089   1.335       .  A
N2274     Mn3113   2.233       .  S
N2275      N3088   1.335   1_545  A
N2276     Mn2288   2.225       .  S
N2277      C3092   1.350       .  A
C2278      N3091   1.350       .  A
C2279      N3087   1.339   1_545  A
C2279      C2387   1.494       .  S
N2280      N2286   1.315       .  A
N2280      N2281   1.314       .  A
N2280     Mn2310   2.191       .  S
N2281      C2289   1.345       .  A
N2282      N2284   1.316   1_655  A
N2282     Mn2288   2.174       .  S
N2284      N2285   1.317       .  A
N2284     Mn2310   2.212   1_455  S
N2285      C2290   1.351       .  A
N2286     Mn2288   2.168       .  S
Mn2288    Cl2312   2.473       .  S
N2291      N3106   1.309       .  A
N2291      N2297   1.325       .  A
N2291     Mn3113   2.192       .  S
N2292      C2300   1.346       .  A
N2292      N3105   1.309       .  A
N2293      N2295   1.303       .  A
N2293      N2294   1.322       .  A
N2293     Mn2311   2.133   1_554  S
N2294      C3115   1.349       .  A
N2295      N3110   1.306       .  A
N2295     Mn3113   2.160   1_554  S
N2296      C2301   1.358       .  A
N2296      N3109   1.306       .  A
N2297      N2298   1.326       .  A
N2297     Mn2311   2.250       .  S
N2298      C3114   1.356       .  A
Mn2299     N3084   2.146   1_565  S
Mn2299     N3088   2.240       .  S
Mn2299     N3105   2.195       .  S
Mn2299     N3109   2.166   1_556  S
Mn2299    Cl3126   2.562       .  S
C2300      N3112   1.355       .  A
C2300      C2355   1.463       .  S
C2301      N3108   1.349       .  A
N2302      N2303   1.325       .  A
N2302      N2308   1.313       .  A
N2302     Mn2310   2.186   1_554  S
N2303      C2313   1.359       .  A
N2304      N2305   1.318       .  A
N2304      N2306   1.305       .  A
N2304     Mn2311   2.170       .  S
N2305      C2314   1.351       .  A
N2306      N2307   1.319       .  A
N2306     Mn2310   2.184       .  S
N2307      C2314   1.354       .  A
N2308      N2309   1.313       .  A
N2308     Mn2311   2.208   1_554  S
N2309      C2313   1.356       .  A
Mn2310    Cl2312   2.534       .  S
Mn2311    Cl2312   2.468       .  S
Cl2312    Mn3113   2.562       .  S
C2314      C2323   1.459       .  S
C2315      C2316   1.409       .  A
C2315      C2320   1.413       .  A
C2316      C2317   1.391       .  A
C2316      H2325   1.078       .  S
C2317      C2318   1.397       .  A
C2317      H2326   1.083       .  S
C2318      C2324   1.394       .  A
C2318      C2319   1.411       .  A
C2319      C2321   1.407       .  A
C2319      C2320   1.401       .  A
C2320      H2327   1.084       .  S
C2321      C2322   1.401       .  A
C2321      H2328   1.083       .  S
C2322      C2323   1.400       .  A
C2322      H2329   1.083       .  S
C2323      C2324   1.397       .  A
C2324      H2330   1.084       .  S
C2331      C2332   1.402       .  A
C2331      C2336   1.414       .  A
C2332      C2333   1.398       .  A
C2332      H2341   1.081       .  S
C2333      C2334   1.405       .  A
C2333      H2342   1.074       .  S
C2334      C2340   1.401       .  A
C2334      C2335   1.409       .  A
C2335      C2337   1.405       .  A
C2335      C2336   1.395       .  A
C2336      H2343   1.084       .  S
C2337      C2338   1.400       .  A
C2337      H2344   1.084       .  S
C2338      C2339   1.401       .  A
C2339      C2340   1.409       .  A
C2340      H2346   1.080       .  S
C2347      C2348   1.409       .  A
C2347      C2352   1.411       .  A
C2348      C2349   1.403       .  A
C2348      H2357   1.079       .  S
C2349      C2350   1.403       .  A
C2349      H2358   1.083       .  S
C2350      C2356   1.407       .  A
C2350      C2351   1.409       .  A
C2351      C2353   1.401       .  A
C2351      C2352   1.395       .  A
C2352      H2359   1.084       .  S
C2353      C2354   1.396       .  A
C2353      H2360   1.084       .  S
C2354      C2355   1.401       .  A
C2354      H2361   1.084       .  S
C2355      C2356   1.411       .  A
C2356      H3176   1.084       .  S
H2362      C3170   1.084       .  S
C2363      C2364   1.409       .  A
C2363      C2368   1.404       .  A
C2364      C2365   1.408       .  A
C2364      H2373   1.083       .  S
C2365      C2366   1.409       .  A
C2365      H2374   1.083       .  S
C2366      C2372   1.404       .  A
C2366      C2367   1.421       .  A
C2367      C2369   1.395       .  A
C2367      C2368   1.407       .  A
C2369      C2370   1.391       .  A
C2369      H2376   1.084       .  S
C2370      C2371   1.415       .  A
C2370      H2377   1.083       .  S
C2371      C2372   1.411       .  A
C2372      H2378   1.079       .  S
C2379      C2380   1.408       .  A
C2379      C2384   1.418       .  A
C2380      C2381   1.416       .  A
C2380      H2389   1.081       .  S
C2381      C2382   1.414       .  A
C2381      H2390   1.083       .  S
C2382      C2388   1.421       .  A
C2382      C2383   1.407       .  A
C2383      C2385   1.402       .  A
C2383      C2384   1.403       .  A
C2384      H2391   1.084       .  S
C2386      H2393   1.074       .  S
C2387      C2388   1.415       .  A
C2388      H2394   1.070       .  S
C2395      C2396   1.409       .  A
C2395      C2400   1.419       .  A
C2396      C2397   1.389       .  A
C2396      H2405   1.080       .  S
C2397      C2398   1.396       .  A
C2397      H2406   1.083       .  S
C2398      C2404   1.388       .  A
C2398      C2399   1.413       .  A
C2399      C2401   1.407       .  A
C2399      C2400   1.409       .  A
C2400      H2407   1.083       .  S
C2401      C2402   1.411   1_545  A
C2401      H2408   1.083       .  S
C2402      C2403   1.414       .  A
C2402      H2409   1.080       .  S
C2403      C2404   1.391   1_565  A
C2404      H2410   1.086       .  S
C2411      C2412   1.410       .  A
C2411      C2416   1.400       .  A
C2412      C2413   1.393       .  A
C2412      H2421   1.079       .  S
C2413      C2414   1.399       .  A
C2413      H2422   1.084       .  S
C2414      C2420   1.396       .  A
C2414      C2415   1.414       .  A
C2415      C2417   1.394       .  A
C2415      C2416   1.387       .  A
C2416      H2423   1.085       .  S
C2417      C2418   1.385       .  A
C2417      H2424   1.084       .  S
C2418      C2419   1.403       .  A
C2419      C2420   1.400       .  A
C2420      H2426   1.084       .  S
C2427      C2432   1.398       .  A
C2428      H2437   1.084       .  S
C2429      C2430   1.401       .  A
C2430      C2436   1.387       .  A
C2430      C2431   1.411       .  A
C2431      C2433   1.400       .  A
C2431      C2432   1.391       .  A
C2433      C2434   1.394       .  A
C2433      H2440   1.084       .  S
C2434      C2435   1.408       .  A
C2434      H2441   1.078       .  S
C2435      C2436   1.406       .  A
C2436      H2442   1.085       .  S
C2443      C2444   1.546       .  S
C2443      C2449   1.554       .  S
C2443      C2447   1.537       .  S
C2443      C2842   1.500       .  S
C2444      H2451   1.081       .  S
C2444      C2445   1.361       .  D
C2445      C2446   1.599       .  S
C2445      C2491   1.574       .  S
C2446      C2450   1.567       .  S
C2446      C2448   1.581       .  S
C2446      H2452   1.104       .  S
C2447      H2453   1.085       .  S
C2447      C2448   1.341       .  D
C2448      C2455   1.560       .  S
C2449      H2454   1.086       .  S
C2449      C2450   1.358       .  D
C2450      N2647   1.467       .  S
C2455      C2457   1.525       .  S
C2455      C2459   1.508       .  S
C2455      C2458   1.593       .  S
C2456      C2483   1.576       .  S
C2456      C2460   1.545       .  S
C2456      C2462   1.506       .  S
C2456      C2461   1.592       .  S
C2457      C2465   1.382       .  A
C2457      C2460   1.397       .  A
C2458      C2461   1.428       .  A
C2459      C2473   1.364       .  A
C2459      C2462   1.385       .  A
C2460      C2463   1.393       .  A
C2462      C2470   1.373       .  A
C2463      N2464   1.358       .  A
C2463      H2476   1.081       .  S
N2464      C2609   1.450       .  S
N2464      C2465   1.352       .  A
C2465      H2466   1.082       .  S
C2467      N2468   1.374       .  A
C2467      H2477   1.081       .  S
N2468      C2469   1.373       .  A
N2468      N2550   1.443       .  S
C2469      H2475   1.081       .  S
C2470      N2471   1.334       .  A
C2470      H2472   1.078       .  S
N2471      C2527   1.420       .  S
N2471      C2473   1.336       .  A
C2473      H2474   1.060       .  S
C2478      C2479   1.538       .  S
C2478      C2484   1.561       .  S
C2478      C2482   1.536       .  S
C2478      C2818   1.510       .  S
C2479      H2486   1.070       .  S
C2479      C2480   1.350       .  D
C2480      C2481   1.588       .  S
C2480      C2584   1.564       .  S
C2481      C2485   1.589       .  S
C2481      C2483   1.609       .  S
C2481      H2487   1.107       .  S
C2482      H2488   1.085       .  S
C2482      C2483   1.349       .  D
C2484      H2489   1.086       .  S
C2484      C2485   1.364       .  D
C2485      N2670   1.491       .  S
C2490      C2574   1.507       .  S
C2490      C2492   1.500       .  S
C2490      C2494   1.532       .  S
C2490      C2493   1.542       .  S
C2491      C2495   1.556       .  S
C2491      C2497   1.537       .  S
C2491      C2496   1.633       .  S
C2492      C2500   1.369       .  A
C2492      C2495   1.359       .  A
C2493      C2496   1.422       .  A
C2494      C2508   1.378       .  A
C2494      C2497   1.385       .  A
C2495      C2498   1.385       .  A
C2497      C2505   1.390       .  A
C2498      N2499   1.352       .  A
C2498      H2511   1.049       .  S
N2499      C2518   1.452       .  S
N2499      C2500   1.350       .  A
C2500      H2501   1.073       .  S
C2502      N2503   1.389       .  A
C2502      H2512   1.081       .  S
N2503      C2504   1.353       .  A
N2503      N2597   1.444       .  S
C2504      H2510   1.079       .  S
C2505      N2506   1.360       .  A
C2505      H2507   1.081       .  S
N2506      C2530   1.450       .  S
N2506      C2508   1.352       .  A
C2508      H2509   1.077       .  S
C2513      C2514   1.536       .  S
C2513      C2519   1.553       .  S
C2513      C2517   1.557       .  S
C2513      C2802   1.523       .  S
C2514      H2521   1.084       .  S
C2514      C2515   1.364       .  D
C2515      C2516   1.593       .  S
C2515      C2538   1.557       .  S
C2516      C2520   1.596       .  S
C2516      C2518   1.526       .  S
C2516      H2522   1.107       .  S
C2517      H2523   1.073       .  S
C2517      C2518   1.341       .  D
C2519      H2524   1.083       .  S
C2519      C2520   1.350       .  D
C2520      C2631   1.568       .  S
C2525      C2526   1.542       .  S
C2525      C2531   1.583       .  S
C2525      C2529   1.559       .  S
C2525      C2786   1.543       .  S
C2526      H2533   1.087       .  S
C2526      C2527   1.346       .  D
C2527      C2528   1.509       .  S
C2528      C2532   1.561       .  S
C2528      C2530   1.526       .  S
C2528      H2534   1.111       .  S
C2529      H2535   1.086       .  S
C2529      C2530   1.363       .  D
C2531      H2536   1.084       .  S
C2531      C2532   1.389       .  D
C2532      C2655   1.566       .  S
C2537      C2621   1.589       .  S
C2537      C2539   1.495       .  S
C2537      C2541   1.539       .  S
C2537      C2540   1.602       .  S
C2538      C2542   1.509       .  S
C2538      C2544   1.531       .  S
C2538      C2543   1.583       .  S
C2539      C2547   1.358       .  A
C2539      C2542   1.376       .  A
C2540      C2551   1.414       .  A
C2540      C2543   1.428       .  A
C2541      C2555   1.380       .  A
C2541      C2544   1.400       .  A
C2542      C2545   1.358       .  A
C2543      C2549   1.396       .  A
C2544      C2552   1.377       .  A
C2545      N2546   1.329       .  A
C2545      H2558   1.058       .  S
N2546      C2565   1.400       .  S
N2546      C2547   1.328       .  A
C2547      H2548   1.081       .  S
C2549      N2550   1.368       .  A
C2549      H2559   1.081       .  S
N2550      C2551   1.379       .  A
C2551      H2557   1.082       .  S
C2552      N2553   1.356       .  A
C2552      H2554   1.080       .  S
N2553      C2577   1.442       .  S
N2553      C2555   1.355       .  A
C2555      H2556   1.081       .  S
C2560      C2561   1.568       .  S
C2560      C2566   1.575       .  S
C2560      C2564   1.519       .  S
C2560      C2778   1.517       .  S
C2561      H2568   1.083       .  S
C2561      C2562   1.370       .  D
C2562      C2563   1.572       .  S
C2562      C2585   1.547       .  S
C2563      C2567   1.525       .  S
C2563      C2565   1.497       .  S
C2563      H2569   1.109       .  S
C2564      H2570   1.089       .  S
C2564      C2565   1.333       .  D
C2566      H2571   1.085       .  S
C2566      C2567   1.379       .  D
C2567      N2640   1.465       .  S
C2572      C2573   1.529       .  S
C2572      C2578   1.566       .  S
C2572      C2576   1.556       .  S
C2572      C2754   1.527       .  S
C2573      H2580   1.078       .  S
C2573      C2574   1.344       .  D
C2574      C2575   1.557       .  S
C2575      C2579   1.526       .  S
C2575      C2577   1.532       .  S
C2575      H2581   1.111       .  S
C2576      H2582   1.078       .  S
C2576      C2577   1.367       .  D
C2578      H2583   1.085       .  S
C2578      C2579   1.372       .  D
C2579      N2663   1.457       .  S
C2584      C2586   1.502       .  S
C2584      C2588   1.541       .  S
C2584      C2587   1.639       .  S
C2585      C2589   1.531       .  S
C2585      C2591   1.552       .  S
C2585      C2590   1.557       .  S
C2586      C2594   1.361       .  A
C2586      C2589   1.367       .  A
C2587      C2598   1.426       .  A
C2587      C2590   1.431       .  A
C2588      C2602   1.387       .  A
C2588      C2591   1.368       .  A
C2589      C2592   1.375       .  A
C2590      C2596   1.396       .  A
C2591      C2599   1.392       .  A
C2592      N2593   1.347       .  A
C2592      H2605   1.079       .  S
N2593      C2612   1.430       .  S
N2593      C2594   1.354       .  A
C2594      H2595   1.060       .  S
C2596      N2597   1.368       .  A
C2596      H2606   1.082       .  S
N2597      C2598   1.380       .  A
C2598      H2604   1.079       .  S
C2599      N2600   1.368       .  A
C2599      H2601   1.081       .  S
N2600      C2624   1.480       .  S
N2600      C2602   1.358       .  A
C2602      H2603   1.060       .  S
C2607      C2608   1.568   1_556  S
C2607      C2613   1.532       .  S
C2607      C2611   1.548   1_556  S
C2607      C2738   1.516       .  S
C2608      H2615   1.084       .  S
C2608      C2609   1.379       .  D
C2609      C2610   1.529       .  S
C2610      C2614   1.558       .  S
C2610      C2612   1.520       .  S
C2610      H2616   1.110       .  S
C2611      H2617   1.086       .  S
C2611      C2612   1.347       .  D
C2613      H2618   1.085       .  S
C2613      C2614   1.352   1_556  D
C2614      C2632   1.516       .  S
C2619      C2620   1.542       .  S
C2619      C2625   1.541       .  S
C2619      C2623   1.551       .  S
C2619      C2722   1.518       .  S
C2620      H2627   1.085       .  S
C2620      C2621   1.358       .  D
C2621      C2622   1.623       .  S
C2622      C2626   1.584       .  S
C2622      C2624   1.576       .  S
C2622      H2628   1.110       .  S
C2623      H2629   1.081       .  S
C2623      C2624   1.358       .  D
C2625      H2630   1.075       .  S
C2625      C2626   1.351       .  D
C2626      C2654   1.570       .  S
C2631      C2633   1.558       .  S
C2631      C2635   1.546       .  S
C2631      C2634   1.610   1_554  S
C2632      C2636   1.525       .  S
C2632      C2638   1.518       .  S
C2632      C2637   1.565   1_554  S
C2633      C2641   1.403       .  A
C2633      C2636   1.370       .  A
C2634      C3052   1.418       .  A
C2634      C2637   1.425       .  A
C2635      C2649   1.398       .  A
C2635      C2638   1.377       .  A
C2636      C2639   1.383       .  A
C2637      C3050   1.394       .  A
C2638      C2646   1.381       .  A
C2639      N2640   1.360       .  A
C2639      H2652   1.074       .  S
N2640      C2641   1.371       .  A
C2641      H2642   1.082       .  S
C2643      C3044   1.393       .  A
C2643      N2644   1.361       .  A
C2643      H2653   1.081       .  S
N2644      C2645   1.383       .  A
N2644      N2667   1.440       .  S
C2645      C3041   1.419       .  A
C2645      H2651   1.082       .  S
C2646      N2647   1.344       .  A
C2646      H2648   1.068       .  S
N2647      C2649   1.363       .  A
C2649      H2650   1.081       .  S
C2654      C2656   1.534       .  S
C2654      C2658   1.541       .  S
C2654      C2657   1.601       .  S
C2655      C2659   1.540       .  S
C2655      C2661   1.556       .  S
C2655      C2660   1.586       .  S
C2656      C2664   1.380       .  A
C2656      C2659   1.373       .  A
C2657      C2668   1.409       .  A
C2657      C2660   1.433       .  A
C2658      C2672   1.391       .  A
C2658      C2661   1.377       .  A
C2659      C2662   1.389       .  A
C2660      C2666   1.408       .  A
C2661      C2669   1.397       .  A
C2662      N2663   1.358       .  A
C2662      H2675   1.077       .  S
N2663      C2664   1.364       .  A
C2664      H2665   1.065       .  S
C2666      N2667   1.376       .  A
C2666      H2676   1.082       .  S
N2667      C2668   1.367       .  A
C2668      H2674   1.077       .  S
C2669      N2670   1.367       .  A
C2669      H2671   1.078       .  S
N2670      C2672   1.367       .  A
C2672      H2673   1.077       .  S
N2677      N2683   1.316       .  A
N2679      N2681   1.313       .  A
N2679     Mn2695   2.178       .  S
N2683     Mn2695   2.227   1_545  S
C2685      C3241   1.441       .  S
C2686      C2794   1.493       .  S
N2687      N2693   1.314       .  A
N2687      N2688   1.315       .  A
N2687     Mn2717   2.195       .  S
N2688      C2696   1.346       .  A
N2689      N2691   1.315   1_655  A
N2689     Mn2695   2.175       .  S
N2691      N2692   1.316       .  A
N2691     Mn2717   2.210   1_455  S
N2692      C2697   1.350       .  A
N2693     Mn2695   2.162       .  S
Mn2695    Cl2719   2.478       .  S
N2698      N2704   1.326       .  A
N2699      C2707   1.347       .  A
N2700      N2702   1.304       .  A
N2700      N2701   1.322       .  A
N2700     Mn2718   2.133       .  S
N2703      C2708   1.358       .  A
N2704      N2705   1.327       .  A
N2704     Mn2718   2.251       .  S
C2707      C2762   1.462       .  S
C2708      C3217   1.476       .  S
N2709      N2710   1.324       .  A
N2709      N2715   1.313       .  A
N2709     Mn2717   2.176       .  S
N2710      C2720   1.355       .  A
N2711      N2712   1.317       .  A
N2711      N2713   1.305       .  A
N2711     Mn2718   2.167       .  S
N2712      C2721   1.351       .  A
N2713      N2714   1.318       .  A
N2713     Mn2717   2.180       .  S
N2714      C2721   1.354       .  A
N2715      N2716   1.315       .  A
N2715     Mn2718   2.217       .  S
N2716      C2720   1.359       .  A
Mn2717    Cl2719   2.525       .  S
Mn2718    Cl2719   2.475       .  S
C2720      C3177   1.485       .  S
C2721      C2730   1.454       .  S
C2722      C2723   1.408       .  A
C2722      C2727   1.411       .  A
C2723      C2724   1.389       .  A
C2723      H2732   1.078       .  S
C2724      C2725   1.397       .  A
C2724      H2733   1.083       .  S
C2725      C2731   1.391       .  A
C2725      C2726   1.411       .  A
C2726      C2728   1.406       .  A
C2726      C2727   1.398       .  A
C2727      H2734   1.085       .  S
C2728      C2729   1.399       .  A
C2728      H2735   1.084       .  S
C2729      C2730   1.399       .  A
C2729      H2736   1.083       .  S
C2730      C2731   1.396       .  A
C2731      H2737   1.085       .  S
C2738      C2739   1.401       .  A
C2738      C2743   1.414       .  A
C2739      C2740   1.398       .  A
C2739      H2748   1.082       .  S
C2740      C2741   1.405       .  A
C2740      H2749   1.074       .  S
C2741      C2747   1.400       .  A
C2741      C2742   1.409       .  A
C2742      C2744   1.405       .  A
C2742      C2743   1.394       .  A
C2743      H2750   1.085       .  S
C2744      C2745   1.399       .  A
C2744      H2751   1.084       .  S
C2745      C2746   1.401       .  A
C2746      C2747   1.409       .  A
C2747      H2753   1.081       .  S
C2754      C2755   1.409       .  A
C2754      C2759   1.412       .  A
C2755      C2756   1.402       .  A
C2755      H2764   1.078       .  S
C2756      C2757   1.402       .  A
C2756      H2765   1.082       .  S
C2757      C2763   1.405       .  A
C2757      C2758   1.408       .  A
C2758      C2760   1.402       .  A
C2758      C2759   1.396       .  A
C2759      H2766   1.084       .  S
C2760      C2761   1.397       .  A
C2760      H2767   1.083       .  S
C2761      C2762   1.401       .  A
C2761      H2768   1.084       .  S
C2762      C2763   1.410       .  A
C2770      C2771   1.408       .  A
C2770      C2775   1.403       .  A
C2770      C3127   1.485       .  S
C2771      C2772   1.407       .  A
C2771      H2780   1.083       .  S
C2772      C2773   1.409       .  A
C2772      H2781   1.082       .  S
C2773      C2779   1.402       .  A
C2773      C2774   1.422       .  A
C2774      C2776   1.395       .  A
C2774      C2775   1.406       .  A
C2775      H3189   1.085   1_655  S
C2776      C2777   1.392       .  A
C2776      H2783   1.084       .  S
C2777      C2778   1.414       .  A
C2777      H2784   1.083       .  S
C2778      C2779   1.411       .  A
C2779      H2785   1.078       .  S
H2782      C3182   1.085   1_455  S
C2786      C2787   1.408       .  A
C2786      C2791   1.415       .  A
C2787      C2788   1.417       .  A
C2787      H2796   1.081       .  S
C2788      C2789   1.414       .  A
C2788      H2797   1.083       .  S
C2789      C2795   1.422       .  A
C2789      C2790   1.408       .  A
C2790      C2792   1.400       .  A
C2790      C2791   1.400       .  A
C2791      H2798   1.085       .  S
C2793      H2800   1.073       .  S
C2794      C2795   1.417       .  A
C2795      H2801   1.074       .  S
C2802      C2803   1.407       .  A
C2802      C2807   1.418       .  A
C2803      C2804   1.389       .  A
C2803      H2812   1.080   1_554  S
C2804      C2805   1.397       .  A
C2804      H2813   1.083       .  S
C2805      C2811   1.388       .  A
C2805      C2806   1.414       .  A
C2806      C2808   1.407       .  A
C2806      C2807   1.409       .  A
C2807      H2814   1.083       .  S
C2808      C2809   1.410       .  A
C2808      H2815   1.083       .  S
C2809      C2810   1.414       .  A
C2809      H2816   1.080       .  S
C2810      C2811   1.392       .  A
C2810      C3115   1.476       .  S
C2811      H2817   1.086       .  S
C2818      C2819   1.413       .  A
C2818      C2823   1.399       .  A
C2819      C2820   1.393       .  A
C2819      H2828   1.078       .  S
C2820      C2821   1.397       .  A
C2820      H2829   1.084       .  S
C2821      C2827   1.397       .  A
C2821      C2822   1.414       .  A
C2822      C2824   1.394       .  A
C2822      C2823   1.389       .  A
C2823      H2830   1.085       .  S
C2824      C2825   1.385       .  A
C2824      H2831   1.084       .  S
C2825      C2826   1.401       .  A
C2826      C2827   1.400       .  A
C2827      H2833   1.085       .  S
C2834      C3242   1.397       .  A
C2834      C2839   1.399   1_556  A
C2834      C3092   1.439       .  S
C2835      C3241   1.397       .  A
C2835      C3243   1.386       .  A
C2835      H2844   1.084       .  S
C2836      C3242   1.387       .  A
C2836      C2837   1.399   1_556  A
C2836      H3252   1.084       .  S
C2837      C2843   1.383       .  A
C2837      C2838   1.412       .  A
C2838      C2840   1.401       .  A
C2838      C2839   1.393       .  A
C2840      C2841   1.395       .  A
C2840      H2847   1.084       .  S
C2841      C2842   1.409       .  A
C2841      H2848   1.080       .  S
C2842      C2843   1.403       .  A
C2843      H2849   1.084       .  S
H2845      C3243   1.084       .  S
C2850      C2851   1.546       .  S
C2850      C2856   1.554       .  S
C2850      C2854   1.538       .  S
C2850      C3249   1.501       .  S
C2851      H2858   1.081       .  S
C2851      C2852   1.362       .  D
C2852      C2853   1.598       .  S
C2852      C2898   1.575       .  S
C2853      C2857   1.566       .  S
C2853      C2855   1.580       .  S
C2853      H2859   1.104       .  S
C2854      H2860   1.085       .  S
C2854      C2855   1.341       .  D
C2855      C2862   1.560       .  S
C2856      H2861   1.086       .  S
C2856      C2857   1.358       .  D
C2857      N3054   1.466       .  S
C2862      C2864   1.524       .  S
C2862      C2866   1.508       .  S
C2862      C2865   1.594       .  S
C2863      C2890   1.577       .  S
C2863      C2867   1.543       .  S
C2863      C2869   1.505       .  S
C2863      C2868   1.593       .  S
C2864      C2872   1.381       .  A
C2864      C2867   1.397       .  A
C2865      C2868   1.428       .  A
C2866      C2880   1.364       .  A
C2866      C2869   1.385       .  A
C2867      C2870   1.392       .  A
C2869      C2877   1.372       .  A
C2870      N2871   1.357       .  A
C2870      H2883   1.082       .  S
N2871      C3016   1.447       .  S
N2871      C2872   1.352       .  A
C2872      H2873   1.082       .  S
C2874      N2875   1.374       .  A
C2874      H2884   1.081       .  S
N2875      C2876   1.373       .  A
N2875      N2957   1.443       .  S
C2876      H2882   1.081       .  S
C2877      N2878   1.334       .  A
C2877      H2879   1.078       .  S
N2878      C2934   1.419       .  S
N2878      C2880   1.336       .  A
C2880      H2881   1.061       .  S
C2885      C2886   1.538       .  S
C2885      C2891   1.560       .  S
C2885      C2889   1.536       .  S
C2885      C3225   1.511       .  S
C2886      H2893   1.070       .  S
C2886      C2887   1.350       .  D
C2887      C2888   1.589       .  S
C2887      C2991   1.565       .  S
C2888      C2892   1.587       .  S
C2888      C2890   1.610       .  S
C2888      H2894   1.108       .  S
C2889      H2895   1.084       .  S
C2889      C2890   1.350       .  D
C2891      H2896   1.086       .  S
C2891      C2892   1.363       .  D
C2892      N3077   1.490       .  S
C2897      C2981   1.508       .  S
C2897      C2899   1.501       .  S
C2897      C2901   1.533       .  S
C2897      C2900   1.542       .  S
C2898      C2902   1.557       .  S
C2898      C2904   1.538       .  S
C2898      C2903   1.632       .  S
C2899      C2907   1.370       .  A
C2899      C2902   1.360       .  A
C2900      C2903   1.422       .  A
C2901      C2915   1.379       .  A
C2901      C2904   1.386       .  A
C2902      C2905   1.385       .  A
C2904      C2912   1.390       .  A
C2905      N2906   1.352       .  A
C2905      H2918   1.049       .  S
N2906      C2925   1.453       .  S
N2906      C2907   1.350       .  A
C2907      H2908   1.073       .  S
C2909      N2910   1.389       .  A
C2909      H2919   1.081       .  S
N2910      C2911   1.353       .  A
N2910      N3004   1.444       .  S
C2911      H2917   1.078       .  S
C2912      N2913   1.360       .  A
C2912      H2914   1.081       .  S
N2913      C2937   1.450       .  S
N2913      C2915   1.352       .  A
C2915      H2916   1.077       .  S
C2920      C2921   1.536       .  S
C2920      C2926   1.553       .  S
C2920      C2924   1.559       .  S
C2920      C3209   1.524       .  S
C2921      H2928   1.084       .  S
C2921      C2922   1.364       .  D
C2922      C2923   1.595       .  S
C2922      C2945   1.559       .  S
C2923      C2927   1.597       .  S
C2923      C2925   1.525       .  S
C2923      H2929   1.107       .  S
C2924      H2930   1.073       .  S
C2924      C2925   1.342       .  D
C2926      H2931   1.082       .  S
C2926      C2927   1.348       .  D
C2927      C3038   1.569       .  S
C2932      C2933   1.542       .  S
C2932      C2938   1.584       .  S
C2932      C2936   1.559       .  S
C2932      C3193   1.545       .  S
C2933      H2940   1.087       .  S
C2933      C2934   1.347       .  D
C2934      C2935   1.509       .  S
C2935      C2939   1.561       .  S
C2935      C2937   1.525       .  S
C2935      H2941   1.111       .  S
C2936      H2942   1.086       .  S
C2936      C2937   1.363       .  D
C2938      H2943   1.084       .  S
C2938      C2939   1.389       .  D
C2939      C3062   1.568       .  S
C2944      C3028   1.592       .  S
C2944      C2946   1.496       .  S
C2944      C2948   1.539       .  S
C2944      C2947   1.602       .  S
C2945      C2949   1.510       .  S
C2945      C2951   1.532       .  S
C2945      C2950   1.583       .  S
C2946      C2954   1.358       .  A
C2946      C2949   1.376       .  A
C2947      C2958   1.415       .  A
C2947      C2950   1.428       .  A
C2948      C2962   1.380       .  A
C2948      C2951   1.400       .  A
C2949      C2952   1.360       .  A
C2950      C2956   1.397       .  A
C2951      C2959   1.377       .  A
C2952      N2953   1.329       .  A
C2952      H2965   1.057       .  S
N2953      C2972   1.400       .  S
N2953      C2954   1.328       .  A
C2954      H2955   1.081       .  S
C2956      N2957   1.368       .  A
C2956      H2966   1.081       .  S
N2957      C2958   1.380       .  A
C2958      H2964   1.082       .  S
C2959      N2960   1.357       .  A
C2959      H2961   1.080       .  S
N2960      C2984   1.443       .  S
N2960      C2962   1.356       .  A
C2962      H2963   1.080       .  S
C2967      C2968   1.569       .  S
C2967      C2973   1.573       .  S
C2967      C2971   1.519       .  S
C2967      C3185   1.516       .  S
C2968      H2975   1.083       .  S
C2968      C2969   1.372       .  D
C2969      C2970   1.573       .  S
C2969      C2992   1.550       .  S
C2970      C2974   1.525       .  S
C2970      C2972   1.497       .  S
C2970      H2976   1.109       .  S
C2971      H2977   1.089       .  S
C2971      C2972   1.333       .  D
C2973      H2978   1.085       .  S
C2973      C2974   1.376       .  D
C2974      N3047   1.463       .  S
C2979      C2980   1.530       .  S
C2979      C2985   1.564       .  S
C2979      C2983   1.557       .  S
C2979      C3161   1.527       .  S
C2980      H2987   1.078       .  S
C2980      C2981   1.345       .  D
C2981      C2982   1.556       .  S
C2982      C2986   1.526       .  S
C2982      C2984   1.533       .  S
C2982      H2988   1.111       .  S
C2983      H2989   1.078       .  S
C2983      C2984   1.368       .  D
C2985      H2990   1.085       .  S
C2985      C2986   1.371       .  D
C2986      N3070   1.456       .  S
C2991      C2993   1.501       .  S
C2991      C2995   1.541       .  S
C2991      C2994   1.640       .  S
C2992      C2996   1.534       .  S
C2992      C2998   1.553       .  S
C2992      C2997   1.558       .  S
C2993      C3001   1.361       .  A
C2993      C2996   1.367       .  A
C2994      C3005   1.427       .  A
C2994      C2997   1.432       .  A
C2995      C3009   1.386       .  A
C2995      C2998   1.368       .  A
C2996      C2999   1.377       .  A
C2997      C3003   1.396       .  A
C2998      C3006   1.393       .  A
C2999      N3000   1.348       .  A
C2999      H3012   1.079       .  S
N3000      C3019   1.432       .  S
N3000      C3001   1.354       .  A
C3001      H3002   1.059       .  S
C3003      N3004   1.368       .  A
C3003      H3013   1.082       .  S
N3004      C3005   1.381       .  A
C3005      H3011   1.079       .  S
C3006      N3007   1.368       .  A
C3006      H3008   1.081       .  S
N3007      C3031   1.480       .  S
N3007      C3009   1.358       .  A
C3009      H3010   1.060       .  S
C3014      C3015   1.567       .  S
C3014      C3020   1.534       .  S
C3014      C3018   1.549       .  S
C3014      C3145   1.516       .  S
C3015      H3022   1.084       .  S
C3015      C3016   1.377       .  D
C3016      C3017   1.530       .  S
C3017      C3021   1.558       .  S
C3017      C3019   1.521       .  S
C3017      H3023   1.110       .  S
C3018      H3024   1.086       .  S
C3018      C3019   1.348       .  D
C3020      H3025   1.085       .  S
C3020      C3021   1.354       .  D
C3021      C3039   1.517       .  S
C3026      C3027   1.542       .  S
C3026      C3032   1.542       .  S
C3026      C3030   1.552       .  S
C3026      C3129   1.520       .  S
C3027      H3034   1.085       .  S
C3027      C3028   1.359       .  D
C3028      C3029   1.624       .  S
C3029      C3033   1.585       .  S
C3029      C3031   1.575       .  S
C3029      H3035   1.110       .  S
C3030      H3036   1.081       .  S
C3030      C3031   1.359       .  D
C3032      H3037   1.075       .  S
C3032      C3033   1.352       .  D
C3033      C3061   1.571       .  S
C3038      C3040   1.556       .  S
C3038      C3042   1.546       .  S
C3038      C3041   1.611       .  S
C3039      C3043   1.524       .  S
C3039      C3045   1.518       .  S
C3039      C3044   1.564       .  S
C3040      C3048   1.402       .  A
C3040      C3043   1.370       .  A
C3041      C3044   1.425       .  A
C3042      C3056   1.398       .  A
C3042      C3045   1.377       .  A
C3043      C3046   1.382       .  A
C3045      C3053   1.381       .  A
C3046      N3047   1.359       .  A
C3046      H3059   1.074       .  S
N3047      C3048   1.370       .  A
C3048      H3049   1.082       .  S
C3050      N3051   1.362       .  A
C3050      H3060   1.081       .  S
N3051      C3052   1.383       .  A
N3051      N3074   1.440       .  S
C3052      H3058   1.082       .  S
C3053      N3054   1.344       .  A
C3053      H3055   1.069       .  S
N3054      C3056   1.363       .  A
C3056      H3057   1.081       .  S
C3061      C3063   1.533       .  S
C3061      C3065   1.540       .  S
C3061      C3064   1.601       .  S
C3062      C3066   1.541       .  S
C3062      C3068   1.555       .  S
C3062      C3067   1.586       .  S
C3063      C3071   1.380       .  A
C3063      C3066   1.374       .  A
C3064      C3075   1.408       .  A
C3064      C3067   1.433       .  A
C3065      C3079   1.391       .  A
C3065      C3068   1.378       .  A
C3066      C3069   1.388       .  A
C3067      C3073   1.408       .  A
C3068      C3076   1.396       .  A
C3069      N3070   1.358       .  A
C3069      H3082   1.077       .  S
N3070      C3071   1.363       .  A
C3071      H3072   1.066       .  S
C3073      N3074   1.376       .  A
C3073      H3083   1.082       .  S
N3074      C3075   1.367       .  A
C3075      H3081   1.077       .  S
C3076      N3077   1.367       .  A
C3076      H3078   1.078       .  S
N3077      C3079   1.366       .  A
C3079      H3080   1.078       .  S
N3084      N3090   1.317       .  A
N3086      N3088   1.313       .  A
N3086     Mn3102   2.178       .  S
N3090     Mn3102   2.228   1_545  S
C3093      C3201   1.494       .  S
N3094      N3100   1.315       .  A
N3094      N3095   1.315       .  A
N3094     Mn3124   2.197       .  S
N3095      C3103   1.346       .  A
N3096      N3098   1.315   1_655  A
N3096     Mn3102   2.175       .  S
N3098      N3099   1.316       .  A
N3098     Mn3124   2.209   1_455  S
N3099      C3104   1.350       .  A
N3100     Mn3102   2.164       .  S
Mn3102    Cl3126   2.477       .  S
N3105      N3111   1.327       .  A
N3106      C3114   1.347       .  A
N3107      N3109   1.303       .  A
N3107      N3108   1.322       .  A
N3107     Mn3125   2.134   1_554  S
N3110      C3115   1.357       .  A
N3111      N3112   1.327       .  A
N3111     Mn3125   2.250       .  S
C3114      C3169   1.462       .  S
N3116      N3117   1.325       .  A
N3116      N3122   1.314       .  A
N3116     Mn3124   2.182   1_554  S
N3117      C3127   1.355       .  A
N3118      N3119   1.318       .  A
N3118      N3120   1.305       .  A
N3118     Mn3125   2.166       .  S
N3119      C3128   1.350       .  A
N3120      N3121   1.318       .  A
N3120     Mn3124   2.181       .  S
N3121      C3128   1.354       .  A
N3122      N3123   1.315       .  A
N3122     Mn3125   2.216   1_554  S
N3123      C3127   1.358       .  A
Mn3124    Cl3126   2.525       .  S
Mn3125    Cl3126   2.475       .  S
C3128      C3137   1.456       .  S
C3129      C3130   1.408       .  A
C3129      C3134   1.412       .  A
C3130      C3131   1.389       .  A
C3130      H3139   1.078       .  S
C3131      C3132   1.397       .  A
C3131      H3140   1.083       .  S
C3132      C3138   1.392       .  A
C3132      C3133   1.411       .  A
C3133      C3135   1.406       .  A
C3133      C3134   1.399       .  A
C3134      H3141   1.084       .  S
C3135      C3136   1.400       .  A
C3135      H3142   1.084       .  S
C3136      C3137   1.399       .  A
C3136      H3143   1.083       .  S
C3137      C3138   1.396       .  A
C3138      H3144   1.084       .  S
C3145      C3146   1.402       .  A
C3145      C3150   1.413       .  A
C3146      C3147   1.398       .  A
C3146      H3155   1.082       .  S
C3147      C3148   1.405       .  A
C3147      H3156   1.075       .  S
C3148      C3154   1.400       .  A
C3148      C3149   1.409       .  A
C3149      C3151   1.405       .  A
C3149      C3150   1.394       .  A
C3150      H3157   1.085       .  S
C3151      C3152   1.400       .  A
C3151      H3158   1.084       .  S
C3152      C3153   1.401       .  A
C3153      C3154   1.409       .  A
C3154      H3160   1.081       .  S
C3161      C3162   1.409       .  A
C3161      C3166   1.411       .  A
C3162      C3163   1.403       .  A
C3162      H3171   1.078       .  S
C3163      C3164   1.402       .  A
C3163      H3172   1.082       .  S
C3164      C3170   1.406       .  A
C3164      C3165   1.409       .  A
C3165      C3167   1.402       .  A
C3165      C3166   1.396       .  A
C3166      H3173   1.084       .  S
C3167      C3168   1.397       .  A
C3167      H3174   1.084       .  S
C3168      C3169   1.402       .  A
C3168      H3175   1.084       .  S
C3169      C3170   1.410       .  A
C3177      C3178   1.408       .  A
C3177      C3182   1.404       .  A
C3178      C3179   1.407       .  A
C3178      H3187   1.083       .  S
C3179      C3180   1.409       .  A
C3179      H3188   1.082       .  S
C3180      C3186   1.402       .  A
C3180      C3181   1.422       .  A
C3181      C3183   1.394       .  A
C3181      C3182   1.406       .  A
C3183      C3184   1.391       .  A
C3183      H3190   1.084       .  S
C3184      C3185   1.415       .  A
C3184      H3191   1.083       .  S
C3185      C3186   1.411       .  A
C3186      H3192   1.080       .  S
C3193      C3194   1.409       .  A
C3193      C3198   1.416       .  A
C3194      C3195   1.417       .  A
C3194      H3203   1.081       .  S
C3195      C3196   1.414       .  A
C3195      H3204   1.083       .  S
C3196      C3202   1.423       .  A
C3196      C3197   1.408       .  A
C3197      C3199   1.400       .  A
C3197      C3198   1.401       .  A
C3198      H3205   1.085       .  S
C3200      H3207   1.073       .  S
C3201      C3202   1.416       .  A
C3202      H3208   1.073       .  S
C3209      C3210   1.407       .  A
C3209      C3214   1.417       .  A
C3210      C3211   1.389       .  A
C3210      H3219   1.080       .  S
C3211      C3212   1.396       .  A
C3211      H3220   1.083       .  S
C3212      C3218   1.387       .  A
C3212      C3213   1.415       .  A
C3213      C3215   1.406       .  A
C3213      C3214   1.409       .  A
C3214      H3221   1.083       .  S
C3215      C3216   1.409       .  A
C3215      H3222   1.083       .  S
C3216      C3217   1.414       .  A
C3216      H3223   1.079       .  S
C3217      C3218   1.393       .  A
C3218      H3224   1.086       .  S
C3225      C3226   1.413       .  A
C3225      C3230   1.399       .  A
C3226      C3227   1.393       .  A
C3226      H3235   1.078       .  S
C3227      C3228   1.397       .  A
C3227      H3236   1.084       .  S
C3228      C3234   1.397       .  A
C3228      C3229   1.414       .  A
C3229      C3231   1.394       .  A
C3229      C3230   1.390       .  A
C3230      H3237   1.085       .  S
C3231      C3232   1.386       .  A
C3231      H3238   1.084       .  S
C3232      C3233   1.401       .  A
C3233      C3234   1.400       .  A
C3234      H3240   1.085       .  S
C3241      C3246   1.401       .  A
C3242      H3251   1.084       .  S
C3243      C3244   1.398       .  A
C3244      C3250   1.383       .  A
C3244      C3245   1.412       .  A
C3245      C3247   1.402       .  A
C3245      C3246   1.395       .  A
C3247      C3248   1.397       .  A
C3247      H3254   1.084       .  S
C3248      C3249   1.409       .  A
C3248      H3255   1.080       .  S
C3249      C3250   1.403       .  A
C3250      H3256   1.084       .  S
