geometry optimzed in LAMMPS
_audit_creation_date              2020-12-01 
_audit_creation_method            'lammps2cif' 
_symmetry_space_group_name_H-M    'P1' 
_symmetry_Int_Tables_number       1 
_symmetry_cell_setting            triclinic 
loop_ 
_symmetry_equiv_pos_as_xyz 
  x,y,z 
_cell_length_a                    36.02128457 
_cell_length_b                    36.78350706623033 
_cell_length_c                    38.48361465189864 
_cell_angle_alpha                 92.40614334946096 
_cell_angle_beta                  89.89144910254227 
_cell_angle_gamma                 90.03115013928189 
loop_ 
_atom_site_label 
_atom_site_type_symbol 
_atom_site_fract_x 
_atom_site_fract_y 
_atom_site_fract_z 
_atom_site_charge 
C1          C  0.19609823  0.20851267  0.22206667     0.88100
C2          C  0.21969251  0.18520543  0.24580257    -0.52100
C3          C  0.24507397  0.20398334  0.26605183     0.11100
C4          C  0.24353540  0.24566592  0.26125404     0.22000
C5          C  0.17802905  0.23744997  0.24682860    -0.52800
C6          C  0.20248555  0.25669489  0.26740300     0.11200
C7          C  0.22446137  0.23083084  0.20174039    -0.52300
C8          C  0.24971102  0.24996142  0.22182496     0.11700
H9          H  0.21635706  0.15590096  0.24622849     0.16300
H10         H  0.26355370  0.26142011  0.27771421     0.02000
H11         H  0.14900148  0.24474691  0.24716362     0.16600
H12         H  0.22391286  0.23194137  0.17359908     0.16400
C13         C  0.09907018  0.46552319  0.42064052     0.31700
C14         C  0.09788990  0.52758764  0.46290673     0.31700
C15         C  0.12835511  0.49429164  0.41326209    -0.04500
C16         C  0.06220540  0.48801382  0.41918545    -0.05300
C17         C  0.10187820  0.46022501  0.45989095    -0.05200
C18         C  0.12762192  0.52563597  0.43447397    -0.04500
C19         C  0.06138346  0.52050504  0.44156466    -0.05300
C20         C  0.10115905  0.49153055  0.48093348    -0.05200
C21         C  0.14306697  0.55308092  0.41564025    -0.30600
N22         N  0.15409329  0.53905645  0.38432412     0.15900
C23         C  0.14417597  0.50362526  0.38207370    -0.30600
H24         H  0.14497405  0.48679176  0.35831652     0.17900
C25         C  0.02448266  0.52459371  0.45196204    -0.29600
N26         N  0.00312149  0.49845841  0.43602514     0.14600
C27         C  0.02586951  0.47545437  0.41758959    -0.29600
C28         C  0.10363427  0.48147631  0.51479394    -0.29800
N29         N  0.10654103  0.44481102  0.51486508     0.15200
H30         H  0.10508017  0.49954910  0.53769910     0.17800
C31         C  0.10492852  0.43135692  0.48151517    -0.29900
H32         H  0.10788606  0.40292851  0.47357126     0.17800
H33         H  0.01733181  0.44882907  0.40775292     0.17800
H34         H  0.14285514  0.58184278  0.42288273     0.17900
H35         H  0.01468910  0.54289588  0.47278164     0.17800
C36         C  0.21094012  0.76754640  0.67682524     0.88100
C37         C  0.23692076  0.78837198  0.65252671    -0.52100
C38         C  0.25717496  0.76662306  0.62988350     0.11100
C39         C  0.24983835  0.72549586  0.63362963     0.22000
C40         C  0.18746133  0.74327545  0.65203155    -0.52800
C41         C  0.20720014  0.72094059  0.62952204     0.11200
C42         C  0.23751733  0.74138955  0.69457677    -0.52300
C43         C  0.25766976  0.71931896  0.67235235     0.11700
H44         H  0.24188389  0.81729948  0.65396548     0.16300
H45         H  0.26652541  0.70757934  0.61570628     0.02000
H46         H  0.15732865  0.74416752  0.65220332     0.16600
H47         H  0.24048036  0.74065530  0.72263325     0.16400
C48         C  0.44365593  0.09992158  0.42089575     0.31700
C49         C  0.50467764  0.09799544  0.46432500     0.31700
C50         C  0.44143240  0.12350605  0.45517441    -0.04500
C51         C  0.45426019  0.06170212  0.43427565    -0.05300
C52         C  0.48116587  0.11388288  0.40601512    -0.05200
C53         C  0.47225679  0.12196612  0.47663161    -0.04500
C54         C  0.48564085  0.06109389  0.45596858    -0.05300
C55         C  0.51210270  0.11105043  0.42751181    -0.05200
C56         C  0.46600753  0.14422232  0.50549485    -0.30600
N57         N  0.43183731  0.15919594  0.50306619     0.15900
C58         C  0.41697849  0.14753332  0.47202422    -0.30600
H59         H  0.38994099  0.15539113  0.46293498     0.17900
C60         C  0.49414568  0.02510597  0.46069254    -0.29600
N61         N  0.46763715  0.00379769  0.44555819     0.14600
C62         C  0.44340835  0.02544964  0.42861832    -0.29600
C63         C  0.54200108  0.12575275  0.41060883    -0.29800
N64         N  0.52990051  0.14048900  0.38104139     0.15200
H65         H  0.57021614  0.12770561  0.42011291     0.17800
C66         C  0.49279998  0.13431900  0.37836337    -0.29900
H67         H  0.47554646  0.14503110  0.35822954     0.17800
H68         H  0.42105389  0.01558686  0.41203489     0.17800
H69         H  0.48514465  0.14898671  0.52681387     0.17900
H70         H  0.51890130  0.01465577  0.47256832     0.17800
C71         C  0.75746521  0.25173507  0.17785902     0.88100
C72         C  0.78057356  0.27555885  0.20310357    -0.52100
C73         C  0.76068240  0.30057412  0.22248596     0.11100
C74         C  0.71841745  0.29979583  0.21446252     0.22000
C75         C  0.72690202  0.23517150  0.20052571    -0.52800
C76         C  0.70671888  0.26007262  0.22003897     0.11200
C77         C  0.73549166  0.27841435  0.15583705    -0.52300
C78         C  0.71492159  0.30350732  0.17455448     0.11700
H79         H  0.81041453  0.27247502  0.20580520     0.16300
H80         H  0.70192936  0.32016214  0.23000687     0.02000
H81         H  0.72102926  0.20625726  0.20077024     0.16600
H82         H  0.73288272  0.27534986  0.12778414     0.16400
C83         C  0.21819463  0.24255414  0.73716775     0.88100
C84         C  0.19532303  0.26868441  0.71550598    -0.52100
C85         C  0.21602343  0.29346559  0.69845833     0.11100
C86         C  0.25801329  0.29051760  0.70554248     0.22000
C87         C  0.24712435  0.22598269  0.71188052    -0.52800
C88         C  0.26771067  0.25100410  0.69514332     0.11200
C89         C  0.23990612  0.26880510  0.76181288    -0.52300
C90         C  0.26189877  0.29321497  0.74548934     0.11700
H91         H  0.16536743  0.26781851  0.71351553     0.16300
H92         H  0.27506348  0.31023966  0.69157386     0.02000
H93         H  0.25048784  0.19684402  0.70717866     0.16600
H94         H  0.23711079  0.26891303  0.78985766     0.16400
C95         C  0.86836606  0.51056843  0.47591245     0.31700
C96         C  0.86755323  0.46517919  0.41695289     0.31700
C97         C  0.85583990  0.52746847  0.44207220    -0.04500
C98         C  0.90717427  0.49487332  0.46460069    -0.05300
C99         C  0.84525162  0.47579936  0.47733237    -0.05200
C100        C  0.85550237  0.50473919  0.41250498    -0.04500
C101        C  0.90662916  0.47109097  0.43413322    -0.05300
C102        C  0.84439617  0.45344642  0.44778415    -0.05200
C103        C  0.84303456  0.52497940  0.38556948    -0.30600
N104        N  0.83535963  0.55915557  0.39818217     0.15900
C105        C  0.84351552  0.56113602  0.43260506    -0.30600
H106        H  0.83982130  0.58502537  0.44964577     0.17900
C107        C  0.94243353  0.47123460  0.42073581    -0.29600
N108        N  0.96471038  0.49215159  0.44188514     0.14600
C109        C  0.94330850  0.50815070  0.46727591    -0.29600
C110        C  0.82882970  0.42093348  0.45672174    -0.29800
N111        N  0.82050579  0.42288569  0.49116780     0.15200
H112        H  0.82537090  0.39717359  0.43952376     0.17800
C113        C  0.83114810  0.45617709  0.50404975    -0.29900
H114        H  0.83122354  0.46468706  0.53131489     0.17800
H115        H  0.95275807  0.53019065  0.48446415     0.17800
H116        H  0.83955456  0.51551590  0.35876484     0.17900
H117        H  0.95103426  0.46020957  0.39565215     0.17800
C118        C  0.73781906  0.78837116  0.19355934     0.88100
C119        C  0.71513893  0.81331477  0.21843382    -0.52100
C120        C  0.69346577  0.79523530  0.24108702     0.11100
C121        C  0.69653052  0.75363327  0.23704598     0.22000
C122        C  0.75957425  0.76310390  0.21716331    -0.52800
C123        C  0.73807339  0.74546108  0.24025133     0.11200
C124        C  0.70904816  0.76244995  0.17588007    -0.52300
C125        C  0.68747679  0.74450019  0.19880046     0.11700
H126        H  0.71585821  0.84279803  0.21776160     0.16300
H127        H  0.67906657  0.73862769  0.25545012     0.02000
H128        H  0.78948451  0.75961798  0.21587109     0.16600
H129        H  0.70754965  0.75575194  0.14827775     0.16400
C130        C  0.74583327  0.17834789  0.68694850     0.88100
C131        C  0.72026856  0.15321476  0.66472893    -0.52100
C132        C  0.69571744  0.17131439  0.64474026     0.11100
C133        C  0.69913279  0.21286088  0.64829388     0.22000
C134        C  0.76436023  0.20367523  0.66103303    -0.52800
C135        C  0.73985156  0.22122565  0.64073065     0.11200
C136        C  0.71932347  0.20439015  0.70751439    -0.52300
C137        C  0.69486980  0.22237167  0.68725244     0.11700
H138        H  0.72108222  0.12373371  0.66532877     0.16300
H139        H  0.67943864  0.22747584  0.63164305     0.02000
H140        H  0.79350569  0.21062273  0.66050058     0.16600
H141        H  0.72093670  0.20939780  0.73548315     0.16400
C142        C  0.45648320  0.86772940  0.47131373     0.31700
C143        C  0.51827530  0.87512800  0.43008716     0.31700
C144        C  0.45660392  0.84609978  0.43614393    -0.04500
C145        C  0.46377555  0.90722169  0.45869275    -0.05300
C146        C  0.49419591  0.85774918  0.48753677    -0.05200
C147        C  0.48810641  0.84935969  0.41581042    -0.04500
C148        C  0.49610344  0.91062438  0.43823710    -0.05300
C149        C  0.52534804  0.86222022  0.46707862    -0.05200
C150        C  0.47896088  0.83763473  0.38236312    -0.30600
N151        N  0.44292177  0.82715405  0.38172820     0.15900
C152        C  0.42874909  0.83318067  0.41416590    -0.30600
H153        H  0.39966311  0.83068898  0.42082974     0.17900
C154        C  0.49988889  0.94687082  0.43109097    -0.29600
N155        N  0.46977274  0.96534515  0.44334731     0.14600
C156        C  0.44757148  0.94184019  0.46039086    -0.29600
C157        C  0.55570387  0.85232569  0.48654407    -0.29800
N158        N  0.54397490  0.84000263  0.51754496     0.15200
H159        H  0.58427745  0.85241502  0.47790739     0.17800
C160        C  0.50627211  0.84374025  0.51849402    -0.29900
H161        H  0.48865218  0.83659336  0.53994541     0.17800
H162        H  0.42210100  0.94982098  0.47342540     0.17800
H163        H  0.49670883  0.83867179  0.35972758     0.17900
H164        H  0.52347830  0.95950044  0.41904376     0.17800
C165        C  0.23227092  0.73421867  0.14499971     0.88100
C166        C  0.21557433  0.70890588  0.17198003    -0.52100
C167        C  0.24127097  0.68796800  0.18785542     0.11100
C168        C  0.28117932  0.69333894  0.17480310     0.22000
C169        C  0.26297715  0.75544096  0.16439058    -0.52800
C170        C  0.28811071  0.73438808  0.18059046     0.11200
C171        C  0.25231747  0.70730211  0.11976600    -0.52300
C172        C  0.27850774  0.68617303  0.13485278     0.11700
H173        H  0.18621673  0.70735246  0.17810010     0.16300
H174        H  0.30192805  0.67663255  0.18817873     0.02000
H175        H  0.26324005  0.78496839  0.16712107     0.16600
H176        H  0.24413692  0.70295382  0.09284021     0.16400
C177        C  0.76365026  0.71287373  0.72605973     0.88100
C178        C  0.78617509  0.68946076  0.69975074    -0.52100
C179        C  0.76547470  0.66797571  0.67745160     0.11100
C180        C  0.72314250  0.67133201  0.68406055     0.22000
C181        C  0.73574670  0.73375398  0.70398447    -0.52800
C182        C  0.71496983  0.71235671  0.68169111     0.11200
C183        C  0.73897610  0.68551117  0.74474799    -0.52300
C184        C  0.71796919  0.66365087  0.72308235     0.11700
H185        H  0.81631520  0.68999593  0.69893131     0.16300
H186        H  0.70579066  0.65399877  0.66622762     0.02000
H187        H  0.73315272  0.76320396  0.70537519     0.16600
H188        H  0.73515760  0.68463432  0.77251245     0.16400
C189        C  0.51209830  0.45031734  0.05630913     0.31700
C190        C  0.45294020  0.49726876  0.04858738     0.31700
C191        C  0.51496915  0.48821946  0.07468363    -0.04500
C192        C  0.50386256  0.46150375  0.01780313    -0.05300
C193        C  0.47350698  0.43687753  0.06830770    -0.05200
C194        C  0.48505159  0.51152044  0.07166943    -0.04500
C195        C  0.47332073  0.48527411  0.01503886    -0.05300
C196        C  0.44386659  0.46087046  0.06535435    -0.05200
C197        C  0.49446273  0.54372817  0.08925729    -0.30600
N198        N  0.52961679  0.54102182  0.10152967     0.15900
C199        C  0.54222356  0.50705841  0.09292767    -0.30600
H200        H  0.56946307  0.49679052  0.09907510     0.17900
C201        C  0.46968734  0.49471105  0.98109291    -0.29600
N202        N  0.49701443  0.47841351  0.96219010     0.14600
C203        C  0.51784695  0.45784401  0.98362637    -0.29600
C204        C  0.41495939  0.44696525  0.08465245    -0.29800
N205        N  0.42512276  0.41439705  0.09690251     0.15200
H206        H  0.38904650  0.46030843  0.09136032     0.17800
C207        C  0.46092493  0.40808737  0.08733072    -0.29900
H208        H  0.47705290  0.38482446  0.09466225     0.17800
H209        H  0.54096202  0.44163656  0.97438203     0.17800
H210        H  0.47773019  0.56807627  0.09161521     0.17900
H211        H  0.44849315  0.51204655  0.97071327     0.17800
C212        C  0.51537737  0.51097735  0.83341729     0.31700
C213        C  0.45529586  0.46459579  0.83751954     0.31700
C214        C  0.51750727  0.47457686  0.81231693    -0.04500
C215        C  0.50683082  0.49685814  0.87077732    -0.05300
C216        C  0.47707983  0.52637891  0.82291820    -0.05200
C217        C  0.48695586  0.45175262  0.81310240    -0.04500
C218        C  0.47600713  0.47318024  0.87178233    -0.05300
C219        C  0.44705627  0.50262955  0.82398836    -0.05200
C220        C  0.49636942  0.42038407  0.79395941    -0.30600
N221        N  0.53230491  0.42291018  0.78390116     0.15900
C222        C  0.54548756  0.45584393  0.79496588    -0.30600
H223        H  0.57389709  0.46484716  0.79198420     0.17900
C224        C  0.47135612  0.46227183  0.90520146    -0.29600
N225        N  0.49815111  0.47774946  0.92540047     0.14600
C226        C  0.51953914  0.49936600  0.90531768    -0.29600
C227        C  0.41864963  0.51836411  0.80565400    -0.29800
N228        N  0.42916912  0.55190797  0.79615668     0.15200
H229        H  0.39291678  0.50559029  0.79745774     0.17800
C230        C  0.46499105  0.55702047  0.80630413    -0.29900
H231        H  0.48159667  0.58060365  0.80072678     0.17800
H232        H  0.54145647  0.51638627  0.91583547     0.17800
H233        H  0.47950534  0.39632781  0.78950668     0.17900
H234        H  0.44926479  0.44521393  0.91450227     0.17800
C235        C  0.06737811  0.91450123  0.02834571     0.44100
N236        N  0.03008670  0.92643732  0.98679082     0.03000
C237        C  0.02553132  0.07476830  0.88336735    -0.04900
H238        H  0.00071302  0.10129932  0.01931126     0.08500
C239        C  0.88794395  0.03281824  0.00892275    -0.05200
Co240      Co  0.05276933  0.99178389  0.94872644     0.74200
N241        N  0.01907133  0.05698714  0.98530540    -0.24400
Co242      Co  0.97900820  0.05265923  0.94615555     0.74100
C243        C  0.89934188  0.06839374  0.02427601     0.44200
N244        N  0.92041258  0.94443093  0.98519957     0.02600
N245        N  0.93711959  0.05195383  0.98321800     0.02700
N246        N  0.07486855  0.03723124  0.88641276    -0.45200
H247        H  0.10345464  0.96480984  0.01670597     0.08500
N248        N  0.04694366  0.03382004  0.98675891     0.03000
N249        N  0.93862792  0.04624833  0.90739507     0.02800
C250        C  0.90221689  0.05364686  0.86419436     0.44400
N251        N  0.94815322  0.92112789  0.98596445    -0.23900
C252        C  0.08098480  0.94219337  0.88558701    -0.04800
N253        N  0.03693564  0.90280281  0.01084307    -0.45000
N254        N  0.93177501  0.06800831  0.88157520    -0.45200
C255        C  0.06964299  0.90718713  0.86923895     0.44100
N256        N  0.04958217  0.03017974  0.91029842     0.03000
N257        N  0.95007907  0.91640889  0.91019434    -0.23900
N258        N  0.05428585  0.95326775  0.98692941    -0.24400
N259        N  0.92153937  0.93874282  0.90936002     0.02600
H260        H  0.96458189  0.86748051  0.88108749     0.08500
H261        H  0.86710228  0.00372446  0.87801983     0.08600
N262        N  0.02083158  0.05220176  0.90923197    -0.24400
N263        N  0.91309405  0.02495821  0.98380378    -0.24000
N264        N  0.03202725  0.92191981  0.91095881     0.03000
C265        C  0.05300843  0.06862898  0.03280542     0.44400
C266        C  0.94334602  0.90004820  0.01318013    -0.05300
N267        N  0.91501177  0.01892194  0.90814508    -0.24000
H268        H  0.86438419  0.01600654  0.01496774     0.08600
N269        N  0.06789248  0.03979007  0.01474997    -0.45300
H270        H  0.96195057  0.87859012  0.02029583     0.08500
C271        C  0.91220611  0.89961518  0.86718674     0.44200
C272        C  0.07904319  0.94823461  0.01226206    -0.04800
Co273      Co  0.99005484  0.92072056  0.94850222     0.73800
N274        N  0.89633931  0.94053270  0.01066055    -0.45000
C275        C  0.06176459  0.06533589  0.86833137     0.44500
N276        N  0.03909641  0.89642233  0.88645765    -0.45000
Co277      Co  0.91661196  0.98161400  0.94666800     0.73900
C278        C  0.89088037  0.02128318  0.88209476    -0.05300
C279        C  0.02069789  0.08012349  0.01311103    -0.04800
N280        N  0.05606326  0.94903318  0.91102551    -0.24400
N281        N  0.92987399  0.07828703  0.00668313    -0.45100
H282        H  0.00605088  0.09578475  0.87717376     0.08500
C283        C  0.94671839  0.89094550  0.88467623    -0.05300
Cl284      Cl  0.98463245  0.98670431  0.94747749    -0.48300
C285        C  0.90888415  0.91315426  0.02964989     0.44300
H286        H  0.10419061  0.95951400  0.87958536     0.08500
N287        N  0.89781219  0.92938001  0.88421889    -0.45000
C288        C  0.82994961  0.79176487  0.74877855     0.14300
C289        C  0.83285760  0.79087675  0.78492228     0.01300
C290        C  0.81609451  0.76253230  0.80235526     0.16300
C291        C  0.79507120  0.73610693  0.78406163     0.25700
C292        C  0.78898603  0.73856842  0.74779002    -0.40700
C293        C  0.80832509  0.76603150  0.73040706     0.32700
C294        C  0.85311250  0.81982705  0.80450337     0.01400
F295        F  0.82068106  0.76010045  0.83721105    -0.13000
F296        F  0.80601477  0.76822181  0.69533500    -0.13500
C297        C  0.83347019  0.84648975  0.82411186     0.16300
C298        C  0.85251193  0.87374999  0.84323108     0.25700
C299        C  0.89158614  0.87423369  0.84345106    -0.40600
C300        C  0.91106291  0.84830300  0.82244250     0.32600
C301        C  0.89193952  0.82126903  0.80322886     0.14400
F302        F  0.79578791  0.84593996  0.82478926    -0.13000
F303        F  0.94866028  0.84913537  0.82026201    -0.13500
F304        F  0.83269174  0.89885331  0.86229337    -0.15800
F305        F  0.91133047  0.79605585  0.78386066    -0.14300
F306        F  0.84749873  0.81813371  0.73133104    -0.14300
F307        F  0.78281981  0.70772308  0.80217208    -0.15700
C308        C  0.60556990  0.57061080  0.82698016     0.14300
C309        C  0.60654161  0.57623654  0.79089439     0.01300
C310        C  0.57839209  0.56074097  0.77014037     0.16300
C311        C  0.54944177  0.54147081  0.78473297     0.25700
C312        C  0.54758727  0.53549693  0.82103064    -0.40700
C313        C  0.57653491  0.55040711  0.84188436     0.32700
C314        C  0.63580242  0.59867722  0.77408600     0.01400
F315        F  0.57925150  0.56349643  0.73504777    -0.13000
F316        F  0.57738411  0.54572554  0.87643853    -0.13500
C317        C  0.67391757  0.59117612  0.77779844     0.16300
C318        C  0.70066280  0.61136548  0.76013401     0.25700
C319        C  0.68986270  0.63873554  0.73767240    -0.40600
C320        C  0.65193990  0.64582079  0.73353884     0.32600
C321        C  0.62529619  0.62653363  0.75193148     0.14400
F322        F  0.68529083  0.56394403  0.79800032    -0.13000
F323        F  0.64067134  0.67272636  0.71294975    -0.13500
F324        F  0.73723811  0.60423530  0.76493859    -0.15800
F325        F  0.58900111  0.63569563  0.74864479    -0.14300
F326        F  0.63246206  0.58509455  0.84798777    -0.14300
F327        F  0.52342757  0.52731996  0.76247558    -0.15700
C328        C  0.14644616  0.87703248  0.08153882     0.14300
C329        C  0.13422439  0.84134046  0.08592643     0.01300
C330        C  0.09889820  0.83079091  0.07431736     0.16300
C331        C  0.07664073  0.85508996  0.05683097     0.25700
C332        C  0.08948683  0.89054499  0.05054226    -0.40700
C333        C  0.12417858  0.90161347  0.06427252     0.32700
C334        C  0.15898728  0.81442156  0.10101932     0.01400
F335        F  0.08649698  0.79644048  0.07887680    -0.13000
F336        F  0.13697859  0.93594617  0.06092257    -0.13500
C337        C  0.15372270  0.80384038  0.13514492     0.16300
C338        C  0.17696699  0.77781013  0.14915568     0.25700
C339        C  0.20517281  0.76059403  0.12868903    -0.40600
C340        C  0.21173585  0.77368236  0.09508531     0.32600
C341        C  0.18832631  0.79960424  0.08124919     0.14400
F342        F  0.12677638  0.81970066  0.15529703    -0.13000
F343        F  0.24200690  0.76338408  0.07610856    -0.13500
F344        F  0.17291876  0.77110754  0.18335520    -0.15800
F345        F  0.19468625  0.81077685  0.04857011    -0.14300
F346        F  0.18020743  0.88790797  0.09368481    -0.14300
F347        F  0.04288776  0.84336337  0.04537580    -0.15700
C348        C  0.32998364  0.59815387  0.11052670     0.14300
C349        C  0.34115941  0.60390658  0.07617184     0.01300
C350        C  0.33050537  0.63605702  0.06062694     0.16300
C351        C  0.31044766  0.66278760  0.07959633     0.25700
C352        C  0.29978258  0.65752707  0.11446245    -0.40700
C353        C  0.30914541  0.62439550  0.12932203     0.32700
C354        C  0.36647170  0.57750332  0.05812285     0.01400
F355        F  0.33980841  0.64170127  0.02706783    -0.13000
F356        F  0.29761046  0.61678607  0.16179853    -0.13500
C357        C  0.35643981  0.54074542  0.05344264     0.16300
C358        C  0.38349184  0.51456928  0.04482026     0.25700
C359        C  0.42125612  0.52458531  0.04357619    -0.40600
C360        C  0.42909932  0.56176489  0.03949860     0.32600
C361        C  0.40229667  0.58815021  0.04820404     0.14400
F362        F  0.32070716  0.53020199  0.05804953    -0.13000
F363        F  0.46324596  0.57267023  0.02913828    -0.13500
F364        F  0.37248405  0.48014227  0.03606780    -0.15800
F365        F  0.41217411  0.62380450  0.04949572    -0.14300
F366        F  0.34024213  0.56740608  0.12632835    -0.14300
F367        F  0.30264255  0.69427304  0.06395614    -0.15700
C368        C  0.67209833  0.74579658  0.59850500     0.14300
C369        C  0.64038210  0.76446966  0.61124590     0.01300
C370        C  0.63273597  0.76453002  0.64712279     0.16300
C371        C  0.65661582  0.74703143  0.66985686     0.25700
C372        C  0.68815053  0.72827419  0.65713380    -0.40700
C373        C  0.69558853  0.72760258  0.62122870     0.32700
C374        C  0.61543349  0.78427201  0.58743223     0.01400
F375        F  0.60261412  0.78251028  0.66030138    -0.13000
F376        F  0.72639326  0.71050640  0.60837575    -0.13500
C377        C  0.57815174  0.77371451  0.58306751     0.16300
C378        C  0.55449546  0.79236279  0.56089619     0.25700
C379        C  0.56744483  0.82243340  0.54266391    -0.40600
C380        C  0.60473972  0.83341109  0.54780543     0.32600
C381        C  0.62843465  0.81437670  0.56963425     0.14400
F382        F  0.56486912  0.74453064  0.59962673    -0.13000
F383        F  0.61824933  0.86309449  0.53224195    -0.13500
F384        F  0.51933432  0.77989230  0.55629875    -0.15800
F385        F  0.66404972  0.82580818  0.57389139    -0.14300
F386        F  0.68029496  0.74517222  0.56403824    -0.14300
F387        F  0.64912549  0.74867376  0.70446871    -0.15700
C388        C  0.40629805  0.81891254  0.29021250     0.14300
C389        C  0.38231039  0.78899877  0.29238300     0.01300
C390        C  0.37872517  0.77173557  0.32404857     0.16300
C391        C  0.39872637  0.78425023  0.35328900     0.25700
C392        C  0.42256712  0.81437820  0.35140859    -0.40700
C393        C  0.42632915  0.83153728  0.31950871     0.32700
C394        C  0.35929686  0.77676978  0.26234983     0.01400
F395        F  0.35575271  0.74268394  0.32655267    -0.13000
F396        F  0.44836011  0.86126565  0.31702775    -0.13500
C397        C  0.37408734  0.75414466  0.23542381     0.16300
C398        C  0.35111706  0.74040290  0.20850801     0.25700
C399        C  0.31333195  0.74986019  0.20786249    -0.40600
C400        C  0.29885174  0.77300058  0.23467066     0.32600
C401        C  0.32158583  0.78608227  0.26174537     0.14400
F402        F  0.41050177  0.74469697  0.23574906    -0.13000
F403        F  0.26213942  0.78140428  0.23567453    -0.13500
F404        F  0.36571850  0.71800331  0.18309486    -0.15800
F405        F  0.30661710  0.80730490  0.28787909    -0.14300
F406        F  0.40956547  0.83639413  0.25997500    -0.14300
F407        F  0.39544189  0.76647673  0.38333448    -0.15700
C408        C  0.83262109  0.13586971  0.72836789     0.14300
C409        C  0.81711638  0.12157126  0.75820370     0.01300
C410        C  0.77861856  0.12303956  0.76321157     0.16300
C411        C  0.75600898  0.14021615  0.73949956     0.25700
C412        C  0.77148516  0.15708747  0.71046655    -0.40700
C413        C  0.81009440  0.15257949  0.70421294     0.32700
C414        C  0.84085941  0.10387779  0.78361965     0.01400
F415        F  0.76295040  0.10825431  0.79147720    -0.13000
F416        F  0.82626858  0.16165275  0.67398688    -0.13500
C417        C  0.86694124  0.12421823  0.80329023     0.16300
C418        C  0.88752790  0.10780057  0.82911957     0.25700
C419        C  0.88241035  0.07068253  0.83544290    -0.40600
C420        C  0.85728267  0.05014319  0.81451729     0.32600
C421        C  0.83663877  0.06668715  0.78898238     0.14400
F422        F  0.87154883  0.16025331  0.79822428    -0.13000
F423        F  0.85276619  0.01390723  0.81827675    -0.13500
F424        F  0.91145618  0.12855879  0.84862879    -0.15800
F425        F  0.81249150  0.04633413  0.76930477    -0.14300
F426        F  0.86960566  0.13256943  0.72205325    -0.14300
F427        F  0.71877819  0.14048360  0.74513683    -0.15700
C428        C  0.62395653  0.27248868  0.74430918     0.14300
C429        C  0.62160241  0.30589401  0.72811930     0.01300
C430        C  0.64289505  0.31165563  0.69833865     0.16300
C431        C  0.66656981  0.28445134  0.68497801     0.25700
C432        C  0.66918449  0.25090764  0.70116747    -0.40700
C433        C  0.64748199  0.24508779  0.73085252     0.32700
C434        C  0.59790028  0.33532766  0.74286996     0.01400
F435        F  0.64148079  0.34408817  0.68278000    -0.13000
F436        F  0.64852682  0.21265449  0.74640858    -0.13500
C437        C  0.60854403  0.35430612  0.77362556     0.16300
C438        C  0.58697483  0.38316885  0.78701211     0.25700
C439        C  0.55440328  0.39336354  0.76986613    -0.40600
C440        C  0.54337715  0.37390847  0.73944764     0.32600
C441        C  0.56520653  0.34522450  0.72582894     0.14400
F442        F  0.64012475  0.34515258  0.79036822    -0.13000
F443        F  0.51191470  0.38325034  0.72266673    -0.13500
F444        F  0.59735805  0.40069054  0.81718800    -0.15800
F445        F  0.55450234  0.32701321  0.69610192    -0.14300
F446        F  0.60325061  0.26641191  0.77300136    -0.14300
F447        F  0.68789458  0.29158481  0.65698776    -0.15700
C448        C  0.78107684  0.83432822  0.11479826     0.14300
C449        C  0.81407212  0.84791467  0.12940012     0.01300
C450        C  0.82068453  0.84498390  0.16490076     0.16300
C451        C  0.79507192  0.82725257  0.18548318     0.25700
C452        C  0.76321623  0.81031337  0.17050889    -0.40700
C453        C  0.75555422  0.81609895  0.13510485     0.32700
C454        C  0.84098363  0.86600856  0.10735724     0.01400
F455        F  0.85181382  0.85957936  0.17965150    -0.13000
F456        F  0.72274307  0.80653149  0.12020770    -0.13500
C457        C  0.83409145  0.90140372  0.09714892     0.16300
C458        C  0.85700994  0.91709814  0.07270780     0.25700
C459        C  0.88728011  0.89747301  0.05806872    -0.40600
C460        C  0.89495075  0.86240670  0.06965953     0.32600
C461        C  0.87184750  0.84683711  0.09413840     0.14400
F462        F  0.80451733  0.92035651  0.11025371    -0.13000
F463        F  0.92354171  0.84230157  0.05632920    -0.13500
F464        F  0.84900014  0.95126362  0.06293951    -0.15800
F465        F  0.87859761  0.81238804  0.10382539    -0.14300
F466        F  0.77352334  0.83896368  0.08070097    -0.14300
F467        F  0.80149439  0.82673145  0.22022720    -0.15700
C468        C  0.60885245  0.69443541  0.15252233     0.14300
C469        C  0.61449105  0.65883402  0.16325339     0.01300
C470        C  0.64286968  0.65194257  0.18702568     0.16300
C471        C  0.66595719  0.68012650  0.19930745     0.25700
C472        C  0.66120018  0.71551121  0.18768251    -0.40700
C473        C  0.63223770  0.72261900  0.16452756     0.32700
C474        C  0.59248547  0.62841240  0.14791765     0.01400
F475        F  0.64854965  0.61773139  0.19785544    -0.13000
F476        F  0.62671744  0.75679374  0.15354607    -0.13500
C477        C  0.60959718  0.60266957  0.12526840     0.16300
C478        C  0.58903991  0.57405008  0.11004356     0.25700
C479        C  0.55097202  0.57025784  0.11772121    -0.40600
C480        C  0.53395963  0.59618203  0.14061866     0.32600
C481        C  0.55455049  0.62513912  0.15541039     0.14400
F482        F  0.64614616  0.60586337  0.11719969    -0.13000
F483        F  0.49758108  0.59316157  0.14923425    -0.13500
F484        F  0.60615106  0.55098794  0.08669968    -0.15800
F485        F  0.53762569  0.64973540  0.17744298    -0.14300
F486        F  0.58153067  0.70156113  0.12952570    -0.14300
F487        F  0.69403058  0.67247907  0.22130655    -0.15700
C488        C  0.61052572  0.81711012  0.29820232     0.14300
C489        C  0.62408570  0.84606310  0.31943846     0.01300
C490        C  0.65987589  0.85956368  0.31395334     0.16300
C491        C  0.68237892  0.84358203  0.28790692     0.25700
C492        C  0.66916229  0.81389376  0.26713196    -0.40700
C493        C  0.63285342  0.80115337  0.27219212     0.32700
C494        C  0.60235458  0.85848048  0.34998345     0.01400
F495        F  0.67354284  0.88700122  0.33488978    -0.13000
F496        F  0.61893974  0.77320263  0.25203346    -0.13500
C497        C  0.60084343  0.83616380  0.37831775     0.16300
C498        C  0.57477094  0.84255605  0.40449894     0.25700
C499        C  0.55139866  0.87367244  0.40494820    -0.40600
C500        C  0.55252419  0.89531959  0.37526688     0.32600
C501        C  0.57830125  0.88818178  0.34853999     0.14400
F502        F  0.62215187  0.80570924  0.37876426    -0.13000
F503        F  0.52537183  0.91955993  0.36895171    -0.13500
F504        F  0.56898451  0.81501160  0.42621138    -0.15800
F505        F  0.57731969  0.90812146  0.31964877    -0.14300
F506        F  0.57600243  0.80353217  0.30355358    -0.14300
F507        F  0.71770001  0.85578195  0.28432282    -0.15700
C508        C  0.80829360  0.56689824  0.54026501     0.14300
C509        C  0.83271682  0.57793754  0.56678565     0.01300
C510        C  0.87027473  0.56740711  0.56411324     0.16300
C511        C  0.88301266  0.54572463  0.53533549     0.25700
C512        C  0.85854084  0.53528110  0.50805103    -0.40700
C513        C  0.82071636  0.54585693  0.51174395     0.32700
C514        C  0.81793965  0.59998781  0.59705522     0.01400
F515        F  0.89431227  0.57698452  0.59003244    -0.13000
F516        F  0.79487837  0.53462339  0.48793005    -0.13500
C517        C  0.78879677  0.58640511  0.61727967     0.16300
C518        C  0.77150400  0.60852599  0.64307676     0.25700
C519        C  0.78306406  0.64468252  0.64931904    -0.40600
C520        C  0.81244981  0.65819943  0.62918124     0.32600
C521        C  0.82972365  0.63602832  0.60340171     0.14400
F522        F  0.77690933  0.55160229  0.61182332    -0.13000
F523        F  0.82357945  0.69337567  0.63349891    -0.13500
F524        F  0.74397002  0.59428705  0.66243407    -0.15800
F525        F  0.85688083  0.65026938  0.58357278    -0.14300
F526        F  0.77191061  0.57655837  0.54193976    -0.14300
F527        F  0.91834008  0.53340885  0.53576164    -0.15700
C528        C  0.75034825  0.27756424  0.56170633     0.14300
C529        C  0.76986944  0.30794252  0.57558550     0.01300
C530        C  0.77957922  0.30950104  0.61096521     0.16300
C531        C  0.77025017  0.28094731  0.63205229     0.25700
C532        C  0.75106778  0.25049428  0.61805025    -0.40700
C533        C  0.74096263  0.24901182  0.58287642     0.32700
C534        C  0.78134167  0.33738904  0.55297106     0.01400
F535        F  0.79858775  0.33843551  0.62496236    -0.13000
F536        F  0.72254288  0.21965437  0.56899096    -0.13500
C537        C  0.77064666  0.37351980  0.56076210     0.16300
C538        C  0.78289939  0.40144821  0.54006861     0.25700
C539        C  0.80646035  0.39378905  0.51141378    -0.40600
C540        C  0.81686794  0.35741053  0.50360329     0.32600
C541        C  0.80425593  0.32952965  0.52410978     0.14400
F542        F  0.74813250  0.38172210  0.58833253    -0.13000
F543        F  0.84067720  0.34881082  0.47717893    -0.13500
F544        F  0.77129117  0.43593930  0.54782811    -0.15800
F545        F  0.81565850  0.29489804  0.51658168    -0.14300
F546        F  0.74010084  0.27577911  0.52774442    -0.14300
F547        F  0.77901907  0.28344960  0.66638118    -0.15700
C548        C  0.79251423  0.66872795  0.27840232     0.14300
C549        C  0.78009199  0.67048077  0.31298564     0.01300
C550        C  0.75463248  0.69743658  0.32393291     0.16300
C551        C  0.74126917  0.72214932  0.30031319     0.25700
C552        C  0.75327475  0.72014572  0.26547451    -0.40700
C553        C  0.77919071  0.69333175  0.25474887     0.32700
C554        C  0.79254476  0.64289361  0.33699140     0.01400
F555        F  0.74232514  0.69939478  0.35732152    -0.13000
F556        F  0.79050730  0.68999993  0.22108981    -0.13500
C557        C  0.82164415  0.65044595  0.36037253     0.16300
C558        C  0.83523942  0.62311322  0.38113781     0.25700
C559        C  0.82003510  0.58787346  0.37849890    -0.40600
C560        C  0.79015736  0.58077536  0.35571620     0.32600
C561        C  0.77653632  0.60812049  0.33511241     0.14400
F562        F  0.83760501  0.68391392  0.36220597    -0.13000
F563        F  0.77398521  0.54741945  0.35367225    -0.13500
F564        F  0.86430649  0.63055615  0.40266202    -0.15800
F565        F  0.74795420  0.60065350  0.31297912    -0.14300
F566        F  0.81720694  0.64277801  0.26750970    -0.14300
F567        F  0.71700192  0.74831827  0.31160112    -0.15700
C568        C  0.09713326  0.14650853  0.81999509     0.14300
C569        C  0.13163848  0.13393675  0.80786718     0.01300
C570        C  0.14288886  0.09840659  0.81465374     0.16300
C571        C  0.11975947  0.07574613  0.83354725     0.25700
C572        C  0.08517001  0.08849912  0.84630510    -0.40700
C573        C  0.07411062  0.12420913  0.83890825     0.32700
C574        C  0.15548389  0.15853668  0.78832377     0.01400
F575        F  0.17611326  0.08562495  0.80275341    -0.13000
F576        F  0.04156806  0.13856443  0.85057699    -0.13500
C577        C  0.18959709  0.17052201  0.80190768     0.16300
C578        C  0.21018855  0.19677452  0.78503516     0.25700
C579        C  0.19621042  0.21286967  0.75490881    -0.40600
C580        C  0.16364910  0.19768372  0.73966324     0.32600
C581        C  0.14311406  0.17163022  0.75672620     0.14400
F582        F  0.20259002  0.15742302  0.83202617    -0.13000
F583        F  0.15211539  0.20659570  0.70759132    -0.13500
F584        F  0.24420512  0.20558214  0.79793865    -0.15800
F585        F  0.11105562  0.15888379  0.74222006    -0.14300
F586        F  0.08609491  0.18106453  0.81431767    -0.14300
F587        F  0.13124676  0.04135820  0.83925463    -0.15700
C588        C  0.33016177  0.33032490  0.81371190     0.14300
C589        C  0.33919255  0.36445084  0.80110806     0.01300
C590        C  0.32268577  0.37524484  0.77006317     0.16300
C591        C  0.29692764  0.35275544  0.75245534     0.25700
C592        C  0.28823329  0.31817860  0.76472613    -0.40700
C593        C  0.30580378  0.30709831  0.79534504     0.32700
C594        C  0.36654596  0.38852717  0.81949984     0.01400
F595        F  0.33201267  0.40745077  0.75636861    -0.13000
F596        F  0.30056444  0.27323469  0.80717796    -0.13500
C597        C  0.40203635  0.37570695  0.82811110     0.16300
C598        C  0.42931536  0.40011559  0.84026922     0.25700
C599        C  0.42274692  0.43786137  0.84024976    -0.40600
C600        C  0.38539662  0.44921388  0.83966964     0.32600
C601        C  0.35770680  0.42502284  0.82802908     0.14400
F602        F  0.41122091  0.34015523  0.82252796    -0.13000
F603        F  0.37535911  0.48295073  0.85180372    -0.13500
F604        F  0.46273214  0.38699197  0.85013188    -0.15800
F605        F  0.32243762  0.43733628  0.82451380    -0.14300
F606        F  0.34479904  0.31939750  0.84403344    -0.14300
F607        F  0.28012535  0.36543639  0.72386046    -0.15700
C608        C  0.81739242  0.20613018  0.10507785     0.14300
C609        C  0.82334377  0.17141218  0.11764973     0.01300
C610        C  0.81109007  0.16394964  0.15119680     0.16300
C611        C  0.79123316  0.19016205  0.17111888     0.25700
C612        C  0.78161225  0.22394558  0.15718202    -0.40700
C613        C  0.79768846  0.23241167  0.12489281     0.32700
C614        C  0.84324239  0.14347787  0.09591531     0.01400
F615        F  0.81907191  0.13147718  0.16495226    -0.13000
F616        F  0.79588235  0.26649677  0.11283064    -0.13500
C617        C  0.88096601  0.14795147  0.08815266     0.16300
C618        C  0.89924319  0.12293814  0.06570964     0.25700
C619        C  0.88001556  0.09298958  0.05018732    -0.40600
C620        C  0.84223627  0.08828552  0.05858125     0.32600
C621        C  0.82412170  0.11327069  0.08134115     0.14400
F622        F  0.90006291  0.17681957  0.10217464    -0.13000
F623        F  0.82221860  0.06054482  0.04375801    -0.13500
F624        F  0.93584054  0.12827819  0.05908721    -0.15800
F625        F  0.78742780  0.10880947  0.08808580    -0.14300
F626        F  0.83061116  0.21457553  0.07334647    -0.14300
F627        F  0.78264371  0.18271901  0.20443141    -0.15700
C628        C  0.57416033  0.40184387  0.12160531     0.14300
C629        C  0.60077650  0.38319788  0.10113294     0.01300
C630        C  0.59860526  0.38582692  0.06466579     0.16300
C631        C  0.57055458  0.40674794  0.04922867     0.25700
C632        C  0.54365888  0.42557656  0.06983921    -0.40700
C633        C  0.54619345  0.42208257  0.10648121     0.32700
C634        C  0.63041690  0.36160532  0.11857338     0.01400
F635        F  0.62325413  0.36752111  0.04375092    -0.13000
F636        F  0.52162325  0.43922307  0.12843099    -0.13500
C637        C  0.62082626  0.33705754  0.14439463     0.16300
C638        C  0.64825106  0.31981575  0.16366766     0.25700
C639        C  0.68610868  0.32549403  0.15691424    -0.40600
C640        C  0.69588734  0.34866474  0.13010563     0.32600
C641        C  0.66843260  0.36701698  0.11158615     0.14400
F642        F  0.58465554  0.32913612  0.15060215    -0.13000
F643        F  0.73217406  0.35375758  0.12202816    -0.13500
F644        F  0.63762613  0.29619516  0.18792273    -0.15800
F645        F  0.67913060  0.39076083  0.08742952    -0.14300
F646        F  0.57567454  0.40142167  0.15685535    -0.14300
F647        F  0.57005740  0.40777966  0.01427647    -0.15700
C648        C  0.79769490  0.38430186  0.27243838     0.14300
C649        C  0.81778764  0.36898477  0.29972472     0.01300
C650        C  0.81915638  0.33082031  0.30105137     0.16300
C651        C  0.80037889  0.30870529  0.27612407     0.25700
C652        C  0.77908019  0.32421495  0.24981670    -0.40700
C653        C  0.77796193  0.36220295  0.24825295     0.32700
C654        C  0.83276315  0.39303842  0.32883972     0.01400
F655        F  0.83732522  0.31488706  0.32728038    -0.13000
F656        F  0.75843400  0.37793479  0.22276834    -0.13500
C657        C  0.80866467  0.41797441  0.34556613     0.16300
C658        C  0.82085546  0.44084081  0.37288558     0.25700
C659        C  0.85804885  0.44012212  0.38495775    -0.40600
C660        C  0.88184205  0.41343105  0.36957746     0.32600
C661        C  0.86949405  0.39058673  0.34141519     0.14400
F662        F  0.77227832  0.41916958  0.33646880    -0.13000
F663        F  0.91578543  0.40717499  0.38307684    -0.13500
F664        F  0.79509604  0.46271990  0.38891969    -0.15800
F665        F  0.89335699  0.36580957  0.32678667    -0.14300
F666        F  0.79696656  0.42093851  0.26938359    -0.14300
F667        F  0.80211973  0.27199127  0.27827173    -0.15700
C668        C  0.56818649  0.08506238  0.54429082     0.14300
C669        C  0.58996664  0.11654593  0.54399626     0.01300
C670        C  0.58421114  0.14142996  0.51812752     0.16300
C671        C  0.55727535  0.13491991  0.49265659     0.25700
C672        C  0.53687789  0.10185048  0.49060477    -0.40700
C673        C  0.54125100  0.07819085  0.51853320     0.32700
C674        C  0.61571118  0.12610666  0.57274791     0.01400
F675        F  0.60330089  0.17331147  0.51876306    -0.13000
F676        F  0.51672095  0.05117416  0.52405691    -0.13500
C677        C  0.65224616  0.11287322  0.57220389     0.16300
C678        C  0.67812543  0.12625703  0.59670627     0.25700
C679        C  0.66768607  0.15319767  0.62186546    -0.40600
C680        C  0.63060331  0.16507567  0.62331944     0.32600
C681        C  0.60481642  0.15161559  0.59894467     0.14400
F682        F  0.66321709  0.08834571  0.54691697    -0.13000
F683        F  0.61945241  0.19010029  0.64811858    -0.13500
F684        F  0.71382811  0.11458299  0.59450962    -0.15800
F685        F  0.56942340  0.16431361  0.60017176    -0.14300
F686        F  0.57118306  0.06226089  0.57098812    -0.14300
F687        F  0.54843522  0.16307365  0.47255693    -0.15700
C688        C  0.36527401  0.22296659  0.55004685     0.14300
C689        C  0.37050421  0.21333795  0.58459238     0.01300
C690        C  0.39826609  0.18841494  0.59238667     0.16300
C691        C  0.41908101  0.17142082  0.56579986     0.25700
C692        C  0.41298360  0.17962429  0.53070262    -0.40700
C693        C  0.38656837  0.20648341  0.52327826     0.32700
C694        C  0.34390823  0.22498152  0.61194321     0.01400
F695        F  0.40349446  0.17868567  0.62568320    -0.13000
F696        F  0.38102966  0.21651397  0.49016174    -0.13500
C697        C  0.30889474  0.20834946  0.61269594     0.16300
C698        C  0.28436013  0.21639048  0.64002815     0.25700
C699        C  0.29452761  0.24123310  0.66712407    -0.40600
C700        C  0.32962748  0.25801118  0.66629844     0.32600
C701        C  0.35425456  0.24979084  0.63889786     0.14400
F702        F  0.29885424  0.18362340  0.58723397    -0.13000
F703        F  0.34044776  0.28154773  0.69247181    -0.13500
F704        F  0.25034786  0.20045249  0.63958553    -0.15800
F705        F  0.38825141  0.26573762  0.63874892    -0.14300
F706        F  0.33884986  0.24761622  0.54223284    -0.14300
F707        F  0.44323376  0.14503510  0.57448745    -0.15700
C708        C  0.64884526  0.24635250  0.30139952     0.14300
C709        C  0.62298932  0.22017473  0.28918729     0.01300
C710        C  0.62262652  0.20986072  0.25366610     0.16300
C711        C  0.64885219  0.22402066  0.23097386     0.25700
C712        C  0.67598231  0.24891864  0.24335645    -0.40700
C713        C  0.67503095  0.26081628  0.27859474     0.32700
C714        C  0.59899535  0.20063341  0.31369129     0.01400
F715        F  0.59744312  0.18516187  0.24117233    -0.13000
F716        F  0.70084078  0.28469562  0.29138752    -0.13500
C717        C  0.56524156  0.21552151  0.32594078     0.16300
C718        C  0.54215954  0.19565101  0.34775218     0.25700
C719        C  0.55271220  0.16075474  0.35781964    -0.40600
C720        C  0.58672542  0.14625395  0.34584763     0.32600
C721        C  0.60952016  0.16590498  0.32388316     0.14400
F722        F  0.55461964  0.24914545  0.31663742    -0.13000
F723        F  0.59748109  0.11260109  0.35492160    -0.13500
F724        F  0.51006124  0.21083315  0.35983676    -0.15800
F725        F  0.64201025  0.15100088  0.31242219    -0.14300
F726        F  0.64982406  0.25657201  0.33569225    -0.14300
F727        F  0.64798050  0.21309032  0.19684330    -0.15700
C728        C  0.08667788  0.83994130  0.79282188     0.14300
C729        C  0.12495762  0.84424497  0.78703708     0.01300
C730        C  0.14510904  0.86832002  0.80917683     0.16300
C731        C  0.12729262  0.88858605  0.83590599     0.25700
C732        C  0.08880166  0.88510161  0.84129376    -0.40700
C733        C  0.06878144  0.86008220  0.81976729     0.32700
C734        C  0.14408719  0.82485592  0.75737570     0.01400
F735        F  0.18235669  0.87195882  0.80504891    -0.13000
F736        F  0.03162891  0.85591625  0.82406076    -0.13500
C737        C  0.16224506  0.84482424  0.73214118     0.16300
C738        C  0.18282786  0.82734611  0.70543409     0.25700
C739        C  0.18647951  0.78892217  0.70358986    -0.40600
C740        C  0.16590921  0.76904087  0.72789562     0.32600
C741        C  0.14530720  0.78674670  0.75450645     0.14400
F742        F  0.15965318  0.88168792  0.73314177    -0.13000
F743        F  0.16624722  0.73207343  0.72625387    -0.13500
F744        F  0.19752062  0.84873310  0.68120710    -0.15800
F745        F  0.12750803  0.76656681  0.77814457    -0.14300
F746        F  0.06639949  0.81711619  0.77169239    -0.14300
F747        F  0.14807854  0.91092482  0.85699412    -0.15700
C748        C  0.30424571  0.63246710  0.69978764     0.14300
C749        C  0.33484900  0.64631003  0.71889486     0.01300
C750        C  0.34113452  0.68405506  0.72047441     0.16300
C751        C  0.31666306  0.70761187  0.70428276     0.25700
C752        C  0.28586791  0.69385670  0.68553839    -0.40700
C753        C  0.28019101  0.65606081  0.68288476     0.32700
C754        C  0.35931880  0.62178275  0.73850403     0.01400
F755        F  0.37015992  0.69821866  0.73898771    -0.13000
F756        F  0.25037695  0.64218276  0.66533510    -0.13500
C757        C  0.39706801  0.61762490  0.72972251     0.16300
C758        C  0.42021928  0.59503741  0.74874860     0.25700
C759        C  0.40610407  0.57642182  0.77716718    -0.40600
C760        C  0.36839945  0.58111917  0.78618195     0.32600
C761        C  0.34526264  0.60339888  0.76698344     0.14400
F762        F  0.41132846  0.63498303  0.70226184    -0.13000
F763        F  0.35414263  0.56474139  0.81421535    -0.13500
F764        F  0.45607265  0.59041379  0.73865119    -0.15800
F765        F  0.30922765  0.60772567  0.77672212    -0.14300
F766        F  0.29739832  0.59614198  0.69794845    -0.14300
F767        F  0.32259109  0.74405650  0.70745948    -0.15700
C768        C  0.30417350  0.82774849  0.56530612     0.14300
C769        C  0.34103434  0.81521897  0.56560071     0.01300
C770        C  0.35004930  0.78638315  0.58711201     0.16300
C771        C  0.32266891  0.76983607  0.60708477     0.25700
C772        C  0.28577126  0.78220624  0.60659424    -0.40700
C773        C  0.27689359  0.81154200  0.58568753     0.32700
C774        C  0.36943378  0.83000057  0.54156721     0.01400
F775        F  0.38563073  0.77446070  0.58907057    -0.13000
F776        F  0.24148477  0.82403356  0.58441657    -0.13500
C777        C  0.37873940  0.86725410  0.54192241     0.16300
C778        C  0.40618727  0.88021773  0.51929889     0.25700
C779        C  0.42423435  0.85632612  0.49502490    -0.40600
C780        C  0.41587970  0.81865581  0.49658462     0.32600
C781        C  0.38829717  0.80606768  0.51849741     0.14400
F782        F  0.36250671  0.89087724  0.56534793    -0.13000
F783        F  0.43546541  0.79318400  0.47771594    -0.13500
F784        F  0.41695028  0.91535244  0.52349935    -0.15800
F785        F  0.38019559  0.76996308  0.51726001    -0.14300
F786        F  0.29430889  0.85498871  0.54445901    -0.14300
F787        F  0.33257056  0.74251268  0.62779867    -0.15700
C788        C  0.14733421  0.35570922  0.65548213     0.14300
C789        C  0.16469630  0.36078278  0.62343022     0.01300
C790        C  0.19950911  0.34487358  0.61655423     0.16300
C791        C  0.21653864  0.32361882  0.64115610     0.25700
C792        C  0.19927202  0.31836979  0.67341415    -0.40700
C793        C  0.16466097  0.33508586  0.68047779     0.32700
C794        C  0.14746551  0.38378594  0.59744401     0.01400
F795        F  0.21665067  0.34931213  0.58554739    -0.13000
F796        F  0.14782384  0.33205476  0.71181097    -0.13500
C797        C  0.16600542  0.41522349  0.58744326     0.16300
C798        C  0.15182268  0.43569771  0.56093184     0.25700
C799        C  0.11887827  0.42508654  0.54393696    -0.40600
C800        C  0.09950722  0.39436013  0.55459372     0.32600
C801        C  0.11366654  0.37381048  0.58140004     0.14400
F802        F  0.19825800  0.42574548  0.60306689    -0.13000
F803        F  0.06708327  0.38440744  0.53899040    -0.13500
F804        F  0.17113499  0.46509372  0.55069840    -0.15800
F805        F  0.09516426  0.34361300  0.59088622    -0.14300
F806        F  0.11393415  0.37134754  0.66281038    -0.14300
F807        F  0.24910930  0.30698222  0.63261712    -0.15700
C808        C  0.19856356  0.61115822  0.23675914     0.14300
C809        C  0.20823236  0.62100715  0.27131815     0.01300
C810        C  0.23027189  0.65210134  0.27792230     0.16300
C811        C  0.24195236  0.67321741  0.25054553     0.25700
C812        C  0.23141831  0.66388766  0.21622556    -0.40700
C813        C  0.20986353  0.63261820  0.20944579     0.32700
C814        C  0.19431229  0.59963025  0.30051963     0.01400
F815        F  0.23924655  0.66284411  0.31103730    -0.13000
F816        F  0.19980232  0.62292943  0.17635811    -0.13500
C817        C  0.21917316  0.58456961  0.32416907     0.16300
C818        C  0.20578405  0.56484912  0.35190041     0.25700
C819        C  0.16755451  0.55963423  0.35617556    -0.40600
C820        C  0.14265383  0.57460859  0.33277112     0.32600
C821        C  0.15589041  0.59465515  0.30521611     0.14400
F822        F  0.25638591  0.58849886  0.32008870    -0.13000
F823        F  0.10555480  0.56992718  0.33687803    -0.13500
F824        F  0.23000761  0.55063171  0.37462352    -0.15800
F825        F  0.13120115  0.60987979  0.28352852    -0.14300
F826        F  0.17818979  0.58072349  0.22950702    -0.14300
F827        F  0.26223551  0.70365875  0.25775526    -0.15700
C828        C  0.09974594  0.62103406  0.51549520     0.14300
C829        C  0.13440656  0.61849720  0.53231902     0.01300
C830        C  0.15540134  0.58694523  0.52684864     0.16300
C831        C  0.14269252  0.55858453  0.50502590     0.25700
C832        C  0.10764663  0.55999975  0.48813651    -0.40700
C833        C  0.08654072  0.59213872  0.49329272     0.32700
C834        C  0.15001236  0.64805286  0.55564289     0.01400
F835        F  0.18886521  0.58363457  0.54263870    -0.13000
F836        F  0.05450281  0.59672130  0.47565884    -0.13500
C837        C  0.13738272  0.65262808  0.59005354     0.16300
C838        C  0.15629942  0.67567224  0.61403613     0.25700
C839        C  0.18819870  0.69512421  0.60407033    -0.40600
C840        C  0.20079627  0.69047993  0.56950792     0.32600
C841        C  0.18200912  0.66706765  0.54565453     0.14400
F842        F  0.10782469  0.63320066  0.60096305    -0.13000
F843        F  0.23104400  0.70885609  0.55858528    -0.13500
F844        F  0.14431077  0.67757556  0.64753221    -0.15800
F845        F  0.19557643  0.66219843  0.51285003    -0.14300
F846        F  0.07931401  0.65189553  0.51968479    -0.14300
F847        F  0.16576198  0.52967650  0.49954048    -0.15700
C848        C  0.11046739  0.16162717  0.17697425     0.14300
C849        C  0.12763891  0.14140876  0.14969585     0.01300
C850        C  0.16651628  0.14150309  0.14759139     0.16300
C851        C  0.18776104  0.16233957  0.17146721     0.25700
C852        C  0.17084820  0.18468390  0.19787248    -0.40700
C853        C  0.13158636  0.18262995  0.20100741     0.32700
C854        C  0.10524845  0.12152026  0.12245281     0.01400
F855        F  0.18406924  0.12222461  0.12157012    -0.13000
F856        F  0.11299718  0.19901129  0.22793020    -0.13500
C857        C  0.07986190  0.14051271  0.10229117     0.16300
C858        C  0.06194622  0.12312591  0.07393106     0.25700
C859        C  0.06920991  0.08626718  0.06485580    -0.40600
C860        C  0.09316470  0.06675087  0.08618488     0.32600
C861        C  0.11090668  0.08418832  0.11473329     0.14400
F862        F  0.07378467  0.17656209  0.10894657    -0.13000
F863        F  0.09945094  0.03073791  0.07945954    -0.13500
F864        F  0.03898430  0.14316489  0.05444554    -0.15800
F865        F  0.13384775  0.06464697  0.13476725    -0.14300
F866        F  0.07298926  0.16053776  0.18076377    -0.14300
F867        F  0.22529799  0.16093244  0.16836642    -0.15700
C868        C  0.34249623  0.35956407  0.12387225     0.14300
C869        C  0.35533721  0.34409683  0.15437888     0.01300
C870        C  0.39136066  0.35260783  0.16621777     0.16300
C871        C  0.41440074  0.37567008  0.14742932     0.25700
C872        C  0.40161765  0.39094364  0.11669149    -0.40700
C873        C  0.36526536  0.38291224  0.10536320     0.31300
C874        C  0.33095188  0.31893797  0.17341325     0.01400
F875        F  0.40431815  0.33824803  0.19576579    -0.13000
F876        F  0.35212375  0.39699409  0.07576309    -0.13500
C877        C  0.32314504  0.28400484  0.15917764     0.16300
C878        C  0.29786673  0.26121569  0.17550319     0.25700
C879        C  0.27931041  0.27306362  0.20631678    -0.40600
C880        C  0.28819049  0.30771651  0.22110427     0.32600
C881        C  0.31377651  0.33034513  0.20481455     0.14400
F882        F  0.33995755  0.27201537  0.12923555    -0.13000
F883        F  0.27088343  0.32059882  0.25042213    -0.13500
F884        F  0.29182310  0.22736211  0.16119485    -0.15800
F885        F  0.32071044  0.36406630  0.21900246    -0.14300
F886        F  0.30768976  0.35212189  0.11209494    -0.14300
F887        F  0.44885333  0.38379330  0.15967038    -0.15700
C888        C  0.31353599  0.13305182  0.29837497     0.14300
C889        C  0.32478379  0.14834691  0.33080986     0.01300
C890        C  0.30953803  0.18225470  0.34185507     0.16300
C891        C  0.28357640  0.20013702  0.32119937     0.25700
C892        C  0.27271445  0.18504657  0.28849796    -0.40700
C893        C  0.28848639  0.15132317  0.27731453     0.32700
C894        C  0.35288142  0.12947243  0.35268033     0.01400
F895        F  0.32026302  0.19850525  0.37253518    -0.13000
F896        F  0.28053081  0.13615486  0.24542889    -0.13500
C897        C  0.38701326  0.11732427  0.33851103     0.16300
C898        C  0.41422046  0.10219706  0.35967396     0.25700
C899        C  0.40970853  0.10205436  0.39615924    -0.40600
C900        C  0.37331228  0.10796475  0.40895289     0.32600
C901        C  0.34561496  0.12254952  0.38778852     0.14400
F902        F  0.39482677  0.12132925  0.30436077    -0.13000
F903        F  0.36421316  0.09897614  0.44172394    -0.13500
F904        F  0.44473538  0.08712075  0.34419111    -0.15800
F905        F  0.31159208  0.12981823  0.40162059    -0.14300
F906        F  0.32642267  0.09993972  0.28708493    -0.14300
F907        F  0.26845003  0.23182471  0.33375121    -0.15700
C908        C  0.16516206  0.34915298  0.29823704     0.14300
C909        C  0.15319060  0.34235159  0.33219398     0.01300
C910        C  0.15980220  0.30775518  0.34531437     0.16300
C911        C  0.17754631  0.28044491  0.32479736     0.25700
C912        C  0.18925591  0.28720243  0.29085048    -0.40700
C913        C  0.18279936  0.32174710  0.27768770     0.32700
C914        C  0.13684338  0.37206299  0.35506277     0.01400
F915        F  0.14847289  0.30027274  0.37791256    -0.13000
F916        F  0.19288074  0.32866507  0.24460558    -0.13500
C917        C  0.10288375  0.38899777  0.34736101     0.16300
C918        C  0.08902865  0.41814229  0.36873650     0.25700
C919        C  0.10880417  0.43073493  0.39856523    -0.40600
C920        C  0.14322759  0.41357375  0.40542622     0.32600
C921        C  0.15660179  0.38465916  0.38438243     0.14400
F922        F  0.08341689  0.37769815  0.31873998    -0.13000
F923        F  0.16555430  0.42636229  0.43160700    -0.13500
F924        F  0.05792933  0.43534546  0.35854606    -0.15800
F925        F  0.19018203  0.37007721  0.39173811    -0.14300
F926        F  0.16023246  0.38251364  0.28516201    -0.14300
F927        F  0.18240178  0.24700386  0.33771772    -0.15700
loop_ 
_geom_bond_atom_site_label_1 
_geom_bond_atom_site_label_2 
_geom_bond_distance 
_geom_bond_site_symmetry_2 
_ccdc_geom_bond_type 
C1            C2   1.537       .  S
C1            C7   1.543       .  S
C1            C5   1.542       .  S
C1          C852   1.548       .  S
C2            H9   1.085       .  S
C2            C3   1.370       .  D
C3            C4   1.553       .  S
C3          C892   1.509       .  S
C4            C8   1.548       .  S
C4            C6   1.549       .  S
C4           H10   1.108       .  S
C5           H11   1.080       .  S
C5            C6   1.363       .  D
C6          C912   1.488       .  S
C7           H12   1.086       .  S
C7            C8   1.370       .  D
C8          C879   1.501       .  S
C13          C15   1.528       .  S
C13          C17   1.535       .  S
C13          C16   1.567       .  S
C13         C919   1.546       .  S
C14          C18   1.529       .  S
C14          C20   1.527       .  S
C14          C19   1.568       .  S
C14         C832   1.546       .  S
C15          C23   1.384       .  A
C15          C18   1.385       .  A
C16          C27   1.388       .  A
C16          C19   1.444       .  A
C17          C31   1.381       .  A
C17          C20   1.380       .  A
C18          C21   1.383       .  A
C19          C25   1.394       .  A
C20          C28   1.372       .  A
C21          N22   1.350       .  A
C21          H34   1.083       .  S
N22          C23   1.350       .  A
N22         C819   1.431       .  S
C23          H24   1.083       .  S
C25          N26   1.358       .  A
C25          H35   1.083       .  S
N26          C27   1.356       .  A
N26         N108   1.422   1_455  S
C27          H33   1.080       .  S
C28          N29   1.353       .  A
C28          H30   1.083       .  S
N29          C31   1.357       .  A
N29         C799   1.430       .  S
C31          H32   1.082       .  S
C36          C37   1.547       .  S
C36          C42   1.539       .  S
C36          C40   1.534       .  S
C36         C739   1.544       .  S
C37          H44   1.078       .  S
C37          C38   1.368       .  D
C38          C39   1.548       .  S
C38         C772   1.494       .  S
C39          C43   1.543       .  S
C39          C41   1.553       .  S
C39          H45   1.110       .  S
C40          H46   1.086       .  S
C40          C41   1.367       .  D
C41         C839   1.501       .  S
C42          H47   1.087       .  S
C42          C43   1.363       .  D
C43         C752   1.486       .  S
C48          C50   1.550       .  S
C48          C52   1.562       .  S
C48          C51   1.565       .  S
C48         C899   1.555       .  S
C49          C53   1.526       .  S
C49          C55   1.538       .  S
C49          C54   1.542       .  S
C49         C672   1.543       .  S
C50          C58   1.389       .  A
C50          C53   1.388       .  A
C51          C62   1.398       .  A
C51          C54   1.407       .  A
C52          C66   1.392       .  A
C52          C55   1.396       .  A
C53          C56   1.370       .  A
C54          C60   1.378       .  A
C55          C63   1.379       .  A
C56          N57   1.354       .  A
C56          H69   1.081       .  S
N57          C58   1.363       .  A
N57         C692   1.445       .  S
C58          H59   1.079       .  S
C60          N61   1.352       .  A
C60          H70   1.081       .  S
N61          C62   1.367       .  A
N61         N155   1.416   1_545  S
C62          H68   1.081       .  S
C63          N64   1.354       .  A
C63          H65   1.082       .  S
N64          C66   1.359       .  A
N64         C719   1.443       .  S
C66          H67   1.081       .  S
C71          C72   1.528       .  S
C71          C77   1.543       .  S
C71          C75   1.544       .  S
C71         C612   1.538       .  S
C72          H79   1.087       .  S
C72          C73   1.363       .  D
C73          C74   1.554       .  S
C73         C652   1.492       .  S
C74          C78   1.553       .  S
C74          C76   1.544       .  S
C74          H80   1.111       .  S
C75          H81   1.085       .  S
C75          C76   1.368       .  D
C76         C712   1.492       .  S
C77          H82   1.085       .  S
C77          C78   1.365       .  D
C78         C639   1.497       .  S
C83          C84   1.539       .  S
C83          C89   1.539       .  S
C83          C87   1.533       .  S
C83         C579   1.531       .  S
C84          H91   1.082       .  S
C84          C85   1.366       .  D
C85          C86   1.542       .  S
C85         C792   1.486       .  S
C86          C90   1.543       .  S
C86          C88   1.532       .  S
C86          H92   1.106       .  S
C87          H93   1.086       .  S
C87          C88   1.363       .  D
C88         C699   1.479       .  S
C89          H94   1.084       .  S
C89          C90   1.369       .  D
C90         C592   1.495       .  S
C95          C97   1.535       .  S
C95          C99   1.529       .  S
C95          C98   1.567       .  S
C95         C512   1.545       .  S
C96         C100   1.535       .  S
C96         C102   1.526       .  S
C96         C101   1.567       .  S
C96         C659   1.546       .  S
C97         C105   1.379       .  A
C97         C100   1.383       .  A
C98         C109   1.392       .  A
C98         C101   1.433       .  A
C99         C113   1.377       .  A
C99         C102   1.375       .  A
C100        C103   1.377       .  A
C101        C107   1.388       .  A
C102        C110   1.377       .  A
C103        N104   1.357       .  A
C103        H116   1.082       .  S
N104        C105   1.356       .  A
N104        C559   1.437       .  S
C105        H106   1.082       .  S
C107        N108   1.359       .  A
C107        H117   1.076       .  S
N108        C109   1.358       .  A
C109        H115   1.080       .  S
C110        N111   1.358       .  A
C110        H112   1.081       .  S
N111        C113   1.357       .  A
N111        C539   1.441       .  S
C113        H114   1.082       .  S
C118        C119   1.533       .  S
C118        C124   1.547       .  S
C118        C122   1.542       .  S
C118        C452   1.527       .  S
C119        H126   1.086       .  S
C119        C120   1.363       .  D
C120        C121   1.536       .  S
C120        C492   1.477       .  S
C121        C125   1.532       .  S
C121        C123   1.533       .  S
C121        H127   1.110       .  S
C122        H128   1.086       .  S
C122        C123   1.362       .  D
C123        C552   1.479       .  S
C124        H129   1.082       .  S
C124        C125   1.365       .  D
C125        C472   1.476       .  S
C130        C131   1.539       .  S
C130        C136   1.546       .  S
C130        C134   1.544       .  S
C130        C412   1.532       .  S
C131        H138   1.086       .  S
C131        C132   1.365       .  D
C132        C133   1.534       .  S
C132        C679   1.481       .  S
C133        C137   1.533       .  S
C133        C135   1.528       .  S
C133        H139   1.111       .  S
C134        H140   1.081       .  S
C134        C135   1.361       .  D
C135        C532   1.470       .  S
C136        H141   1.086       .  S
C136        C137   1.367       .  D
C137        C432   1.482       .  S
C142        C144   1.541       .  S
C142        C146   1.547       .  S
C142        C145   1.573       .  S
C142        C779   1.545       .  S
C143        C147   1.529       .  S
C143        C149   1.541       .  S
C143        C148   1.551       .  S
C143        C499   1.534       .  S
C144        C152   1.385       .  A
C144        C147   1.385       .  A
C145        C156   1.400       .  A
C145        C148   1.413       .  A
C146        C160   1.388       .  A
C146        C149   1.383       .  A
C147        C150   1.381       .  A
C148        C154   1.379       .  A
C149        C157   1.384       .  A
C150        N151   1.354       .  A
C150        H163   1.081       .  S
N151        C152   1.357       .  A
N151        C392   1.441       .  S
C152        H153   1.083       .  S
C154        N155   1.354       .  A
C154        H164   1.081       .  S
N155        C156   1.365       .  A
C156        H162   1.080       .  S
C157        N158   1.360       .  A
C157        H159   1.081       .  S
N158        C160   1.365       .  A
N158        C379   1.457       .  S
C160        H161   1.081       .  S
C165        C166   1.544       .  S
C165        C171   1.537       .  S
C165        C169   1.531       .  S
C165        C339   1.531       .  S
C166        H173   1.085       .  S
C166        C167   1.366       .  D
C167        C168   1.537       .  S
C167        C812   1.477       .  S
C168        C172   1.552       .  S
C168        C170   1.537       .  S
C168        H174   1.109       .  S
C169        H175   1.087       .  S
C169        C170   1.361       .  D
C170        C399   1.484       .  S
C171        H176   1.083       .  S
C171        C172   1.368       .  D
C172        C352   1.497       .  S
C177        C178   1.533       .  S
C177        C183   1.542       .  S
C177        C181   1.543       .  S
C177        C292   1.537       .  S
C178        H185   1.086       .  S
C178        C179   1.364       .  D
C179        C180   1.550       .  S
C179        C519   1.493       .  S
C180        C184   1.551       .  S
C180        C182   1.544       .  S
C180        H186   1.110       .  S
C181        H187   1.086       .  S
C181        C182   1.364       .  D
C182        C372   1.490       .  S
C183        H188   1.079       .  S
C183        C184   1.364       .  D
C184        C319   1.490       .  S
C189        C191   1.540       .  S
C189        C193   1.551       .  S
C189        C192   1.583       .  S
C189        C632   1.560       .  S
C190        C194   1.538       .  S
C190        C196   1.545       .  S
C190        C195   1.533       .  S
C190        C359   1.539       .  S
C191        C199   1.378       .  A
C191        C194   1.385       .  A
C192        C203   1.409   1_554  A
C192        C195   1.413       .  A
C193        C207   1.388       .  A
C193        C196   1.393       .  A
C194        C197   1.382       .  A
C195        C201   1.372   1_554  A
C196        C204   1.388       .  A
C197        N198   1.358       .  A
C197        H210   1.080       .  S
N198        C199   1.357       .  A
N198        C479   1.443       .  S
C199        H200   1.082       .  S
C201        N202   1.349       .  A
C201        H211   1.083       .  S
N202        C203   1.368       .  A
N202        N225   1.415       .  S
C203        H209   1.076       .  S
C204        N205   1.356       .  A
C204        H206   1.081       .  S
N205        C207   1.358       .  A
N205        C872   1.447       .  S
C207        H208   1.082       .  S
C212        C214   1.538       .  S
C212        C216   1.552       .  S
C212        C215   1.579       .  S
C212        C312   1.556       .  S
C213        C217   1.538       .  S
C213        C219   1.542       .  S
C213        C218   1.537       .  S
C213        C599   1.536       .  S
C214        C222   1.377       .  A
C214        C217   1.385       .  A
C215        C226   1.406       .  A
C215        C218   1.412       .  A
C216        C230   1.390       .  A
C216        C219   1.392       .  A
C217        C220   1.385       .  A
C218        C224   1.373       .  A
C219        C227   1.385       .  A
C220        N221   1.355       .  A
C220        H233   1.081       .  S
N221        C222   1.353       .  A
N221        C439   1.434       .  S
C222        H223   1.083       .  S
C224        N225   1.351       .  A
C224        H234   1.083       .  S
N225        C226   1.368       .  A
C226        H232   1.076       .  S
C227        N228   1.355       .  A
C227        H229   1.081       .  S
N228        C230   1.360       .  A
N228        C759   1.448       .  S
C230        H231   1.082       .  S
C235        N253   1.349       .  A
C235        C272   1.470       .  S
C235        C332   1.486       .  S
N236        N253   1.320   1_556  A
N236        N258   1.316       .  A
N236       Co273   2.068   1_455  S
C237        N262   1.333       .  A
C237        H282   1.079       .  S
C237        C275   1.463       .  S
H238        C279   1.080       .  S
C239        N263   1.346   1_554  A
C239        H268   1.081       .  S
C239        C243   1.472       .  S
Co240       N258   2.085       .  S
Co240       N248   2.094   1_565  S
Co240       N280   2.098       .  S
Co240       N256   2.091   1_565  S
Co240      Cl284   2.462   1_455  S
N241        C279   1.340   1_556  A
N241        N248   1.320       .  A
N241       Co242   2.089   1_455  S
Co242       N245   2.075       .  S
Co242       N262   2.069   1_655  S
Co242       N249   2.092       .  S
Co242      Cl284   2.437   1_545  S
C243        N281   1.348       .  A
C243        C619   1.490       .  S
N244        N251   1.318       .  A
N244        N274   1.319   1_556  A
N244       Co277   2.064       .  S
N245        N263   1.318       .  A
N245        N281   1.322   1_556  A
N246        C275   1.356       .  A
N246        N256   1.326       .  A
H247        C272   1.080       .  S
N248        N269   1.327   1_556  A
N249        N267   1.318       .  A
N249        N254   1.325       .  A
C250        N254   1.354       .  A
C250        C278   1.458       .  S
C250        C419   1.479       .  S
N251        C266   1.340   1_556  A
N251       Co273   2.085       .  S
C252        N280   1.343       .  A
C252        H286   1.081       .  S
C252        C255   1.467       .  S
C255        N276   1.351       .  A
C255        C732   1.489       .  S
N256        N262   1.317       .  A
N257        C283   1.334       .  A
N257        N259   1.318       .  A
N257       Co273   2.064       .  S
N258        C272   1.341   1_556  A
N259        N287   1.327       .  A
N259       Co277   2.095       .  S
H260        C283   1.081       .  S
H261        C278   1.080       .  S
N263       Co277   2.100   1_545  S
N264        N276   1.326       .  A
N264        N280   1.320       .  A
N264       Co273   2.091   1_455  S
C265        N269   1.354       .  A
C265        C279   1.462       .  S
C265        C859   1.489       .  S
C266        H270   1.080       .  S
C266        C285   1.465       .  S
N267        C278   1.334       .  A
N267       Co277   2.063   1_545  S
C271        N287   1.355       .  A
C271        C283   1.457       .  S
C271        C299   1.479       .  S
Co273      Cl284   2.437       .  S
N274        C285   1.348       .  A
C275        C572   1.487       .  S
Co277      Cl284   2.457       .  S
C285        C459   1.478       .  S
C288        C289   1.397       .  A
C288        C293   1.396       .  A
C288        F306   1.358       .  S
C289        C290   1.399       .  A
C289        C294   1.472       .  S
C290        C291   1.399       .  A
C290        F295   1.358       .  S
C291        C292   1.420       .  A
C291        F307   1.353       .  S
C292        C293   1.417       .  A
C293        F296   1.358       .  S
C294        C297   1.403       .  A
C294        C301   1.400       .  A
C297        C298   1.399       .  A
C297        F302   1.358       .  S
C298        C299   1.408       .  A
C298        F304   1.357       .  S
C299        C300   1.410       .  A
C300        C301   1.396       .  A
C300        F303   1.357       .  S
C301        F305   1.358       .  S
C308        C309   1.413       .  A
C308        C313   1.417       .  A
C308        F326   1.357       .  S
C309        C310   1.398       .  A
C309        C314   1.501       .  S
C310        C311   1.391       .  A
C310        F315   1.359       .  S
C311        C312   1.425       .  A
C311        F327   1.359       .  S
C312        C313   1.413       .  A
C313        F316   1.348       .  S
C314        C317   1.409       .  A
C314        C321   1.412       .  A
C317        C318   1.407       .  A
C317        F322   1.357       .  S
C318        C319   1.410       .  A
C318        F324   1.358       .  S
C319        C320   1.401       .  A
C320        C321   1.402       .  A
C320        F323   1.356       .  S
C321        F325   1.358       .  S
C328        C329   1.401       .  A
C328        C333   1.398       .  A
C328        F346   1.358       .  S
C329        C330   1.399       .  A
C329        C334   1.471       .  S
C330        C331   1.396       .  A
C330        F335   1.358       .  S
C331        C332   1.414       .  A
C331        F347   1.358       .  S
C332        C333   1.411       .  A
C333        F336   1.355       .  S
C334        C337   1.398       .  A
C334        C341   1.398       .  A
C337        C338   1.398       .  A
C337        F342   1.358       .  S
C338        C339   1.418       .  A
C338        F344   1.357       .  S
C339        C340   1.418       .  A
C340        C341   1.396       .  A
C340        F343   1.356       .  S
C341        F345   1.358       .  S
C348        C349   1.406       .  A
C348        C353   1.399       .  A
C348        F366   1.358       .  S
C349        C350   1.402       .  A
C349        C354   1.483       .  S
C350        C351   1.400       .  A
C350        F355   1.358       .  S
C351        C352   1.416       .  A
C351        F367   1.357       .  S
C352        C353   1.409       .  A
C353        F356   1.357       .  S
C354        C357   1.404       .  A
C354        C361   1.405       .  A
C357        C358   1.400       .  A
C357        F362   1.358       .  S
C358        C359   1.410       .  A
C358        F364   1.356       .  S
C359        C360   1.411       .  A
C360        C361   1.400       .  A
C360        F363   1.358       .  S
C361        F365   1.358       .  S
C368        C369   1.410       .  A
C368        C373   1.408       .  A
C368        F386   1.358       .  S
C369        C370   1.407       .  A
C369        C374   1.496       .  S
C370        C371   1.404       .  A
C370        F375   1.357       .  S
C371        C372   1.406       .  A
C371        F387   1.357       .  S
C372        C373   1.406       .  A
C373        F376   1.358       .  S
C374        C377   1.406       .  A
C374        C381   1.406       .  A
C377        C378   1.406       .  A
C377        F382   1.358       .  S
C378        C379   1.413       .  A
C378        F384   1.356       .  S
C379        C380   1.414       .  A
C380        C381   1.406       .  A
C380        F383   1.357       .  S
C381        F385   1.358       .  S
C388        C389   1.404       .  A
C388        C393   1.402       .  A
C388        F406   1.358       .  S
C389        C390   1.403       .  A
C389        C394   1.478       .  S
C390        C391   1.399       .  A
C390        F395   1.358       .  S
C391        C392   1.406       .  A
C391        F407   1.357       .  S
C392        C393   1.410       .  A
C393        F396   1.357       .  S
C394        C397   1.406       .  A
C394        C401   1.402       .  A
C397        C398   1.404       .  A
C397        F402   1.357       .  S
C398        C399   1.406       .  A
C398        F404   1.358       .  S
C399        C400   1.409       .  A
C400        C401   1.396       .  A
C400        F403   1.358       .  S
C401        F405   1.358       .  S
C408        C409   1.398       .  A
C408        C413   1.397       .  A
C408        F426   1.358       .  S
C409        C410   1.400       .  A
C409        C414   1.473       .  S
C410        C411   1.395       .  A
C410        F415   1.358       .  S
C411        C412   1.414       .  A
C411        F427   1.358       .  S
C412        C413   1.420       .  A
C413        F416   1.354       .  S
C414        C417   1.404       .  A
C414        C421   1.400       .  A
C417        C418   1.399       .  A
C417        F422   1.358       .  S
C418        C419   1.409       .  A
C418        F424   1.358       .  S
C419        C420   1.410       .  A
C420        C421   1.394       .  A
C420        F423   1.356       .  S
C421        F425   1.358       .  S
C428        C429   1.404       .  A
C428        C433   1.399       .  A
C428        F446   1.358       .  S
C429        C430   1.401       .  A
C429        C434   1.473       .  S
C430        C431   1.396       .  A
C430        F435   1.358       .  S
C431        C432   1.409       .  A
C431        F447   1.356       .  S
C432        C433   1.407       .  A
C433        F436   1.358       .  S
C434        C437   1.403       .  A
C434        C441   1.405       .  A
C437        C438   1.396       .  A
C437        F442   1.358       .  S
C438        C439   1.406       .  A
C438        F444   1.357       .  S
C439        C440   1.404       .  A
C440        C441   1.400       .  A
C440        F443   1.357       .  S
C441        F445   1.358       .  S
C448        C449   1.399       .  A
C448        C453   1.395       .  A
C448        F466   1.358       .  S
C449        C450   1.396       .  A
C449        C454   1.465       .  S
C450        C451   1.394       .  A
C450        F455   1.358       .  S
C451        C452   1.417       .  A
C451        F467   1.358       .  S
C452        C453   1.415       .  A
C453        F456   1.354       .  S
C454        C457   1.398       .  A
C454        C461   1.400       .  A
C457        C458   1.393       .  A
C457        F462   1.358       .  S
C458        C459   1.411       .  A
C458        F464   1.358       .  S
C459        C460   1.410       .  A
C460        C461   1.396       .  A
C460        F463   1.356       .  S
C461        F465   1.358       .  S
C468        C469   1.405       .  A
C468        C473   1.399       .  A
C468        F486   1.358       .  S
C469        C470   1.403       .  A
C469        C474   1.475       .  S
C470        C471   1.396       .  A
C470        F475   1.358       .  S
C471        C472   1.405       .  A
C471        F487   1.357       .  S
C472        C473   1.405       .  A
C473        F476   1.358       .  S
C474        C477   1.402       .  A
C474        C481   1.402       .  A
C477        C478   1.396       .  A
C477        F482   1.358       .  S
C478        C479   1.410       .  A
C478        F484   1.357       .  S
C479        C480   1.410       .  A
C480        C481   1.399       .  A
C480        F483   1.357       .  S
C481        F485   1.358       .  S
C488        C489   1.403       .  A
C488        C493   1.393       .  A
C488        F506   1.358       .  S
C489        C490   1.400       .  A
C489        C494   1.468       .  S
C490        C491   1.398       .  A
C490        F495   1.357       .  S
C491        C492   1.409       .  A
C491        F507   1.358       .  S
C492        C493   1.405       .  A
C493        F496   1.358       .  S
C494        C497   1.393       .  A
C494        C501   1.398       .  A
C497        C498   1.389       .  A
C497        F502   1.359       .  S
C498        C499   1.421       .  A
C498        F504   1.356       .  S
C499        C500   1.420       .  A
C500        C501   1.401       .  A
C500        F503   1.353       .  S
C501        F505   1.358       .  S
C508        C509   1.396       .  A
C508        C513   1.390       .  A
C508        F526   1.359       .  S
C509        C510   1.410       .  A
C509        C514   1.489       .  S
C510        C511   1.413       .  A
C510        F515   1.357       .  S
C511        C512   1.413       .  A
C511        F527   1.351       .  S
C512        C513   1.422       .  A
C513        F516   1.359       .  S
C514        C517   1.409       .  A
C514        C521   1.404       .  A
C517        C518   1.402       .  A
C517        F522   1.358       .  S
C518        C519   1.405       .  A
C518        F524   1.357       .  S
C519        C520   1.413       .  A
C520        C521   1.402       .  A
C520        F523   1.358       .  S
C521        F525   1.358       .  S
C528        C529   1.407       .  A
C528        C533   1.397       .  A
C528        F546   1.358       .  S
C529        C530   1.405       .  A
C529        C534   1.476       .  S
C530        C531   1.395       .  A
C530        F535   1.358       .  S
C531        C532   1.404       .  A
C531        F547   1.358       .  S
C532        C533   1.401       .  A
C533        F536   1.358       .  S
C534        C537   1.404       .  A
C534        C541   1.403       .  A
C537        C538   1.397       .  A
C537        F542   1.358       .  S
C538        C539   1.409       .  A
C538        F544   1.357       .  S
C539        C540   1.410       .  A
C540        C541   1.395       .  A
C540        F543   1.356       .  S
C541        F545   1.358       .  S
C548        C549   1.402       .  A
C548        C553   1.396       .  A
C548        F566   1.358       .  S
C549        C550   1.402       .  A
C549        C554   1.471       .  S
C550        C551   1.398       .  A
C550        F555   1.358       .  S
C551        C552   1.407       .  A
C551        F567   1.358       .  S
C552        C553   1.407       .  A
C553        F556   1.358       .  S
C554        C557   1.403       .  A
C554        C561   1.402       .  A
C557        C558   1.400       .  A
C557        F562   1.358       .  S
C558        C559   1.407       .  A
C558        F564   1.357       .  S
C559        C560   1.407       .  A
C560        C561   1.396       .  A
C560        F563   1.357       .  S
C561        F565   1.358       .  S
C568        C569   1.399       .  A
C568        C573   1.392       .  A
C568        F586   1.359       .  S
C569        C570   1.404       .  A
C569        C574   1.475       .  S
C570        C571   1.402       .  A
C570        F575   1.358       .  S
C571        C572   1.412       .  A
C571        F587   1.358       .  S
C572        C573   1.413       .  A
C573        F576   1.354       .  S
C574        C577   1.400       .  A
C574        C581   1.400       .  A
C577        C578   1.398       .  A
C577        F582   1.358       .  S
C578        C579   1.417       .  A
C578        F584   1.357       .  S
C579        C580   1.416       .  A
C580        C581   1.395       .  A
C580        F583   1.356       .  S
C581        F585   1.358       .  S
C588        C589   1.402       .  A
C588        C593   1.396       .  A
C588        F606   1.358       .  S
C589        C590   1.408       .  A
C589        C594   1.485       .  S
C590        C591   1.400       .  A
C590        F595   1.358       .  S
C591        C592   1.410       .  A
C591        F607   1.357       .  S
C592        C593   1.414       .  A
C593        F596   1.357       .  S
C594        C597   1.408       .  A
C594        C601   1.405       .  A
C597        C598   1.399       .  A
C597        F602   1.357       .  S
C598        C599   1.409       .  A
C598        F604   1.358       .  S
C599        C600   1.409       .  A
C600        C601   1.398       .  A
C600        F603   1.356       .  S
C601        F605   1.358       .  S
C608        C609   1.401       .  A
C608        C613   1.399       .  A
C608        F626   1.358       .  S
C609        C610   1.402       .  A
C609        C614   1.482       .  S
C610        C611   1.402       .  A
C610        F615   1.358       .  S
C611        C612   1.417       .  A
C611        F627   1.357       .  S
C612        C613   1.416       .  A
C613        F616   1.357       .  S
C614        C617   1.402       .  A
C614        C621   1.404       .  A
C617        C618   1.399       .  A
C617        F622   1.358       .  S
C618        C619   1.413       .  A
C618        F624   1.358       .  S
C619        C620   1.410       .  A
C620        C621   1.403       .  A
C620        F623   1.356       .  S
C621        F625   1.358       .  S
C628        C629   1.401       .  A
C628        C633   1.395       .  A
C628        F646   1.358       .  S
C629        C630   1.413       .  A
C629        C634   1.507       .  S
C630        C631   1.417       .  A
C630        F635   1.357       .  S
C631        C632   1.414       .  A
C631        F647   1.347       .  S
C632        C633   1.424       .  A
C633        F636   1.359       .  S
C634        C637   1.413       .  A
C634        C641   1.411       .  A
C637        C638   1.404       .  A
C637        F642   1.358       .  S
C638        C639   1.405       .  A
C638        F644   1.356       .  S
C639        C640   1.410       .  A
C640        C641   1.409       .  A
C640        F643   1.358       .  S
C641        F645   1.357       .  S
C648        C649   1.413       .  A
C648        C653   1.404       .  A
C648        F666   1.358       .  S
C649        C650   1.408       .  A
C649        C654   1.499       .  S
C650        C651   1.406       .  A
C650        F655   1.358       .  S
C651        C652   1.411       .  A
C651        F667   1.358       .  S
C652        C653   1.402       .  A
C653        F656   1.357       .  S
C654        C657   1.399       .  A
C654        C661   1.414       .  A
C657        C658   1.390       .  A
C657        F662   1.358       .  S
C658        C659   1.419       .  A
C658        F664   1.359       .  S
C659        C660   1.414       .  A
C660        C661   1.415       .  A
C660        F663   1.353       .  S
C661        F665   1.357       .  S
C668        C669   1.399       .  A
C668        C673   1.404       .  A
C668        F686   1.358       .  S
C669        C670   1.396       .  A
C669        C674   1.476       .  S
C670        C671   1.394       .  A
C670        F675   1.358       .  S
C671        C672   1.420       .  A
C671        F687   1.357       .  S
C672        C673   1.420       .  A
C673        F676   1.353       .  S
C674        C677   1.403       .  A
C674        C681   1.404       .  A
C677        C678   1.402       .  A
C677        F682   1.357       .  S
C678        C679   1.407       .  A
C678        F684   1.357       .  S
C679        C680   1.406       .  A
C680        C681   1.397       .  A
C680        F683   1.358       .  S
C681        F685   1.358       .  S
C688        C689   1.403       .  A
C688        C693   1.401       .  A
C688        F706   1.358       .  S
C689        C690   1.398       .  A
C689        C694   1.472       .  S
C690        C691   1.394       .  A
C690        F695   1.358       .  S
C691        C692   1.414       .  A
C691        F707   1.356       .  S
C692        C693   1.410       .  A
C693        F696   1.357       .  S
C694        C697   1.402       .  A
C694        C701   1.403       .  A
C697        C698   1.395       .  A
C697        F702   1.358       .  S
C698        C699   1.406       .  A
C698        F704   1.358       .  S
C699        C700   1.408       .  A
C700        C701   1.400       .  A
C700        F703   1.358       .  S
C701        F705   1.358       .  S
C708        C709   1.406       .  A
C708        C713   1.407       .  A
C708        F726   1.357       .  S
C709        C710   1.403       .  A
C709        C714   1.485       .  S
C710        C711   1.400       .  A
C710        F715   1.358       .  S
C711        C712   1.409       .  A
C711        F727   1.358       .  S
C712        C713   1.408       .  A
C713        F716   1.357       .  S
C714        C717   1.406       .  A
C714        C721   1.404       .  A
C717        C718   1.407       .  A
C717        F722   1.357       .  S
C718        C719   1.409       .  A
C718        F724   1.357       .  S
C719        C720   1.406       .  A
C720        C721   1.400       .  A
C720        F723   1.357       .  S
C721        F725   1.358       .  S
C728        C729   1.406       .  A
C728        C733   1.405       .  A
C728        F746   1.358       .  S
C729        C730   1.405       .  A
C729        C734   1.489       .  S
C730        C731   1.400       .  A
C730        F735   1.358       .  S
C731        C732   1.408       .  A
C731        F747   1.356       .  S
C732        C733   1.411       .  A
C733        F736   1.358       .  S
C734        C737   1.403       .  A
C734        C741   1.402       .  A
C737        C738   1.401       .  A
C737        F742   1.358       .  S
C738        C739   1.418       .  A
C738        F744   1.352       .  S
C739        C740   1.419       .  A
C740        C741   1.402       .  A
C740        F743   1.359       .  S
C741        F745   1.358       .  S
C748        C749   1.409       .  A
C748        C753   1.406       .  A
C748        F766   1.358       .  S
C749        C750   1.405       .  A
C749        C754   1.490       .  S
C750        C751   1.402       .  A
C750        F755   1.358       .  S
C751        C752   1.407       .  A
C751        F767   1.358       .  S
C752        C753   1.405       .  A
C753        F756   1.358       .  S
C754        C757   1.407       .  A
C754        C761   1.405       .  A
C757        C758   1.406       .  A
C757        F762   1.357       .  S
C758        C759   1.408       .  A
C758        F764   1.357       .  S
C759        C760   1.410       .  A
C760        C761   1.402       .  A
C760        F763   1.357       .  S
C761        F765   1.358       .  S
C768        C769   1.406       .  A
C768        C773   1.404       .  A
C768        F786   1.358       .  S
C769        C770   1.411       .  A
C769        C774   1.495       .  S
C770        C771   1.403       .  A
C770        F775   1.358       .  S
C771        C772   1.405       .  A
C771        F787   1.357       .  S
C772        C773   1.410       .  A
C773        F776   1.358       .  S
C774        C777   1.410       .  A
C774        C781   1.399       .  A
C777        C778   1.412       .  A
C777        F782   1.357       .  S
C778        C779   1.413       .  A
C778        F784   1.352       .  S
C779        C780   1.421       .  A
C780        C781   1.393       .  A
C780        F783   1.358       .  S
C781        F785   1.358       .  S
C788        C789   1.401       .  A
C788        C793   1.398       .  A
C788        F806   1.358       .  S
C789        C790   1.404       .  A
C789        C794   1.475       .  S
C790        C791   1.396       .  A
C790        F795   1.358       .  S
C791        C792   1.408       .  A
C791        F807   1.357       .  S
C792        C793   1.411       .  A
C793        F796   1.357       .  S
C794        C797   1.402       .  A
C794        C801   1.408       .  A
C797        C798   1.391       .  A
C797        F802   1.358       .  S
C798        C799   1.403       .  A
C798        F804   1.357       .  S
C799        C800   1.403       .  A
C800        C801   1.401       .  A
C800        F803   1.357       .  S
C801        F805   1.358       .  S
C808        C809   1.408       .  A
C808        C813   1.400       .  A
C808        F826   1.358       .  S
C809        C810   1.407       .  A
C809        C814   1.485       .  S
C810        C811   1.399       .  A
C810        F815   1.358       .  S
C811        C812   1.404       .  A
C811        F827   1.356       .  S
C812        C813   1.403       .  A
C813        F816   1.358       .  S
C814        C817   1.408       .  A
C814        C821   1.408       .  A
C817        C818   1.400       .  A
C817        F822   1.358       .  S
C818        C819   1.401       .  A
C818        F824   1.357       .  S
C819        C820   1.402       .  A
C820        C821   1.400       .  A
C820        F823   1.357       .  S
C821        F825   1.358       .  S
C828        C829   1.412       .  A
C828        C833   1.418       .  A
C828        F846   1.357       .  S
C829        C830   1.394       .  A
C829        C834   1.491       .  S
C830        C831   1.389       .  A
C830        F835   1.359       .  S
C831        C832   1.423       .  A
C831        F847   1.359       .  S
C832        C833   1.413       .  A
C833        F836   1.354       .  S
C834        C837   1.403       .  A
C834        C841   1.409       .  A
C837        C838   1.404       .  A
C837        F842   1.358       .  S
C838        C839   1.414       .  A
C838        F844   1.358       .  S
C839        C840   1.408       .  A
C840        C841   1.406       .  A
C840        F843   1.357       .  S
C841        F845   1.358       .  S
C848        C849   1.404       .  A
C848        C853   1.405       .  A
C848        F866   1.358       .  S
C849        C850   1.403       .  A
C849        C854   1.491       .  S
C850        C851   1.400       .  A
C850        F855   1.358       .  S
C851        C852   1.417       .  A
C851        F867   1.358       .  S
C852        C853   1.421       .  A
C853        F856   1.353       .  S
C854        C857   1.405       .  A
C854        C861   1.408       .  A
C857        C858   1.400       .  A
C857        F862   1.358       .  S
C858        C859   1.410       .  A
C858        F864   1.356       .  S
C859        C860   1.409       .  A
C860        C861   1.404       .  A
C860        F863   1.358       .  S
C861        F865   1.358       .  S
C868        C869   1.405       .  A
C868        C873   1.402       .  A
C868        F886   1.358       .  S
C869        C870   1.407       .  A
C869        C874   1.489       .  S
C870        C871   1.407       .  A
C870        F875   1.357       .  S
C871        C872   1.409       .  A
C871        F887   1.357       .  S
C872        C873   1.408       .  A
C873        F876   1.357       .  S
C874        C877   1.404       .  A
C874        C881   1.405       .  A
C877        C878   1.403       .  A
C877        F882   1.358       .  S
C878        C879   1.413       .  A
C878        F884   1.358       .  S
C879        C880   1.411       .  A
C880        C881   1.406       .  A
C880        F883   1.356       .  S
C881        F885   1.357       .  S
C888        C889   1.408       .  A
C888        C893   1.404       .  A
C888        F906   1.358       .  S
C889        C890   1.412       .  A
C889        C894   1.506       .  S
C890        C891   1.409       .  A
C890        F895   1.357       .  S
C891        C892   1.410       .  A
C891        F907   1.357       .  S
C892        C893   1.415       .  A
C893        F896   1.358       .  S
C894        C897   1.409       .  A
C894        C901   1.409       .  A
C897        C898   1.405       .  A
C897        F902   1.358       .  S
C898        C899   1.413       .  A
C898        F904   1.357       .  S
C899        C900   1.413       .  A
C900        C901   1.410       .  A
C900        F903   1.357       .  S
C901        F905   1.357       .  S
C908        C909   1.408       .  A
C908        C913   1.406       .  A
C908        F926   1.358       .  S
C909        C910   1.409       .  A
C909        C914   1.495       .  S
C910        C911   1.405       .  A
C910        F915   1.358       .  S
C911        C912   1.404       .  A
C911        F927   1.358       .  S
C912        C913   1.407       .  A
C913        F916   1.358       .  S
C914        C917   1.411       .  A
C914        C921   1.398       .  A
C917        C918   1.414       .  A
C917        F922   1.357       .  S
C918        C919   1.413       .  A
C918        F924   1.354       .  S
C919        C920   1.422       .  A
C920        C921   1.395       .  A
C920        F923   1.359       .  S
C921        F925   1.359       .  S
