geometry optimzed in LAMMPS
_audit_creation_date              2020-12-01 
_audit_creation_method            'lammps2cif' 
_symmetry_space_group_name_H-M    'P1' 
_symmetry_Int_Tables_number       1 
_symmetry_cell_setting            triclinic 
loop_ 
_symmetry_equiv_pos_as_xyz 
  x,y,z 
_cell_length_a                    30.9704326 
_cell_length_b                    25.959491709148033 
_cell_length_c                    25.843842606510243 
_cell_angle_alpha                 90.133724991149 
_cell_angle_beta                  89.79808085559044 
_cell_angle_gamma                 90.91846558165264 
loop_ 
_atom_site_label 
_atom_site_type_symbol 
_atom_site_fract_x 
_atom_site_fract_y 
_atom_site_fract_z 
_atom_site_charge 
O1          O  0.42918094  0.38710973  0.40762735    -0.75000
O2          O  0.37882085  0.43898950  0.44486465    -0.53900
C3          C  0.39012315  0.40056919  0.41690718     0.78800
O4          O  0.07445394  0.39218385  0.10069884    -0.59600
O5          O  0.12696416  0.43823659  0.05788384    -0.52600
C6          C  0.11422038  0.40338352  0.09026010     0.70800
O7          O  0.42829520  0.40103672  0.10225615    -0.74100
O8          O  0.37688301  0.44281589  0.05593235    -0.54700
C9          C  0.38882186  0.41185224  0.09151594     0.76800
O10         O  0.07371023  0.39303763  0.39716513    -0.59300
O11         O  0.12695920  0.43504498  0.44233353    -0.52400
C12         C  0.11358123  0.40276221  0.40754403     0.73400
Zr13       Zr  0.00214317  0.41810964  0.42492879     2.54700
O14         O  0.00359139  0.32437937  0.42731698    -0.79800
O15         O  0.99926247  0.42039549  0.33076318    -0.93200
Zr16       Zr  0.00259900  0.42150567  0.07665684     2.64700
O17         O  0.49886619  0.32738623  0.07514017    -0.98200
O18         O  0.00512816  0.42731337  0.17064985    -0.80300
O19         O  0.45920097  0.42012094  0.50168860    -0.83600
O20         O  0.04502813  0.41826218  0.00047949    -2.18300
O21         O  0.07780416  0.09349541  0.39628283    -0.67000
O22         O  0.12962309  0.04887560  0.43909047    -0.51600
C23         C  0.11725218  0.08251336  0.40582038     0.71800
O24         O  0.43135716  0.09599905  0.10364217    -0.59900
O25         O  0.37902703  0.05170984  0.05921044    -0.51900
C26         C  0.39162499  0.08431307  0.09371200     0.73600
O27         O  0.07608098  0.09266658  0.10315089    -0.71300
O28         O  0.12855590  0.05222445  0.05762244    -0.50000
C29         C  0.11592470  0.08371452  0.09311499     0.74900
O30         O  0.43389624  0.09395991  0.39488340    -0.66600
O31         O  0.38030861  0.05449994  0.44075183    -0.53800
C32         C  0.39375506  0.08595596  0.40544987     0.73300
Zr33       Zr  0.50542263  0.06896889  0.42155624     2.77500
O34         O  0.50265352  0.16267603  0.41892678    -0.97400
O35         O  0.50846555  0.06494846  0.32748712    -0.78200
Zr36       Zr  0.50387903  0.07351391  0.07419679     2.70100
O37         O  0.00618587  0.16588415  0.05984632    -0.79500
O38         O  0.50166312  0.08478002  0.16783258    -0.98500
Zr39       Zr  0.41893319  0.49793896  0.49915028     2.21500
Zr40       Zr  0.08834732  0.99471033  0.99916227     2.11100
O41         O  0.04738634  0.07243798  0.99817493    -2.47200
O42         O  0.46235970  0.07444588  0.49734838    -0.79300
O43         O  0.04599582  0.99266005  0.42314271    -0.71400
O44         O  0.46140761  0.49741350  0.07637729    -2.32400
O45         O  0.46104255  0.49388327  0.42176793    -2.28600
O46         O  0.04507678  0.99681199  0.07607139    -0.73200
H47         H  0.06264068  0.38789806  0.00058892     0.78800
H48         H  0.44345350  0.49812995  0.10700127     0.79900
H49         H  0.06622707  0.10248243  0.99787963     0.82100
H50         H  0.44286780  0.49305642  0.39146956     0.79700
H51         H  0.49931983  0.38883097  0.18205145     0.42700
H52         H  0.02247937  0.06069252  0.18116733     0.41700
H53         H  0.48818533  0.18057705  0.08897660     0.41400
H54         H  0.01681079  0.17451915  0.45164747     0.39300
H55         H  0.02054844  0.02778721  0.32192688     0.42500
H56         H  0.47207916  0.43095727  0.32242723     0.37200
H57         H  0.50101804  0.31050307  0.40136909     0.43400
H58         H  0.99072350  0.31841251  0.11263182     0.39800
H59         H  0.52429128  0.17323680  0.39257762     0.44700
H60         H  0.99395651  0.38415384  0.32025414     0.43400
H61         H  0.97330648  0.31878023  0.05576944     0.43600
H62         H  0.51272653  0.12028241  0.17388285     0.43900
C63         C  0.22920634  0.21457460  0.27580826    -0.02200
C64         C  0.22749828  0.27530192  0.27918527    -0.02200
C65         C  0.23151000  0.27920303  0.21826375    -0.02200
C66         C  0.23279377  0.21829352  0.21553707    -0.02200
C67         C  0.27972056  0.21734151  0.27986472    -0.02200
C68         C  0.28356337  0.22107890  0.21912509    -0.02200
C69         C  0.28205789  0.28148959  0.22352155    -0.02200
C70         C  0.27762427  0.27806490  0.28419147    -0.02200
C71         C  0.14936344  0.11360800  0.37660844     0.00200
C72         C  0.17582064  0.09097968  0.33915787    -0.11700
C73         C  0.19986258  0.12152032  0.30368765     0.02400
C74         C  0.19841955  0.17655919  0.30600954     0.00100
C75         C  0.16752378  0.19680545  0.34011792    -0.11600
C76         C  0.14599357  0.16729912  0.37708547     0.02300
H77         H  0.17606646  0.04929506  0.33596261     0.15300
H78         H  0.15746863  0.23552358  0.33764991     0.15300
C79         C  0.12026753  0.19368626  0.41534444     0.36900
C80         C  0.22137367  0.09369203  0.26329838     0.36800
N81         N  0.10038828  0.21540561  0.44617159    -0.43400
N82         N  0.23547847  0.06732929  0.23150226    -0.43400
C83         C  0.20588193  0.31424668  0.17911670     0.00200
C84         C  0.17973411  0.29149168  0.14021174    -0.11700
C85         C  0.14969126  0.31947649  0.11161823     0.02400
C86         C  0.14731888  0.37303964  0.11752383     0.00100
C87         C  0.17741922  0.39771718  0.14938219    -0.11600
C88         C  0.20724861  0.36955876  0.17854362     0.02300
H89         H  0.18293134  0.25208084  0.12957303     0.15000
H90         H  0.17811047  0.43953177  0.15081534     0.15300
C91         C  0.24238662  0.40014446  0.19837152     0.36900
C92         C  0.12212708  0.29240222  0.07535085     0.36800
N93         N  0.27060116  0.42793185  0.20893165    -0.43400
N94         N  0.09970949  0.27097188  0.04648104    -0.43400
C95         C  0.31395875  0.18623646  0.18579572     0.00200
C96         C  0.31554439  0.13321963  0.19791564    -0.11700
C97         C  0.33899471  0.09797055  0.16780445     0.02400
C98         C  0.35887856  0.11441835  0.12165814     0.00100
C99         C  0.35599101  0.16576143  0.10771390    -0.11600
C100        C  0.33913520  0.20212574  0.14186332     0.02300
H101        H  0.30077003  0.11970963  0.23301867     0.15300
H102        H  0.37436984  0.17876320  0.07407309     0.15300
C103        C  0.36479287  0.24835646  0.13939304     0.36900
C104        C  0.34383814  0.04602537  0.18619322     0.36800
N105        N  0.39054453  0.28074486  0.13434463    -0.43400
N106        N  0.34632339  0.50418284  0.20074313    -0.43400
C107        C  0.20326480  0.18200086  0.18326877     0.00200
C108        C  0.21973850  0.14959942  0.14406995    -0.11700
C109        C  0.19300126  0.11496850  0.11622170     0.02400
C110        C  0.14794090  0.11409690  0.12480774     0.00100
C111        C  0.13153317  0.14688660  0.16323736    -0.11600
C112        C  0.15789403  0.18070074  0.19127320     0.02300
H113        H  0.25320910  0.15140293  0.13347530     0.15300
H114        H  0.09707764  0.14788191  0.17070353     0.15300
C115        C  0.13560884  0.21741703  0.22319106     0.36900
C116        C  0.21292140  0.08003042  0.08019971     0.36800
N117        N  0.11515129  0.24609969  0.24676540    -0.43400
N118        N  0.23063811  0.04967719  0.55369758    -0.43400
C119        C  0.29992881  0.31161926  0.32695017     0.00200
C120        C  0.32696368  0.28793380  0.36360410    -0.11700
C121        C  0.35495411  0.31606064  0.39539844     0.02400
C122        C  0.35592754  0.36982901  0.39232909     0.00100
C123        C  0.32474702  0.39448700  0.36326334    -0.11600
C124        C  0.29578863  0.36628611  0.33236073     0.02300
H125        H  0.32665880  0.24755576  0.36962931     0.15300
H126        H  0.32319919  0.43624842  0.36448923     0.15300
C127        C  0.25983321  0.39569549  0.31509006     0.36900
C128        C  0.38244416  0.28873695  0.43074473     0.36800
N129        N  0.23157233  0.42318609  0.30703966    -0.43400
N130        N  0.40418560  0.26663464  0.45914557    -0.43400
C131        C  0.36246435  0.11621144  0.37376336     0.00200
C132        C  0.37950942  0.14611483  0.33321353    -0.11700
C133        C  0.35414152  0.17867570  0.30369108     0.02400
C134        C  0.30878116  0.18087530  0.31155769     0.00100
C135        C  0.29181391  0.15171169  0.35333784    -0.11600
C136        C  0.31766481  0.11917050  0.38349964     0.02300
H137        H  0.41385241  0.14546374  0.32483511     0.15300
H138        H  0.25891630  0.15632166  0.36542038     0.15300
C139        C  0.29728182  0.09052044  0.42482901     0.36900
C140        C  0.37797076  0.21052243  0.26799233     0.36800
N141        N  0.28092222  0.06721593  0.45777305    -0.43400
N142        N  0.40114893  0.23301652  0.24082829    -0.43400
C143        C  0.14525682  0.37418810  0.37571742     0.00200
C144        C  0.17639793  0.34358624  0.39930164    -0.11700
C145        C  0.20233333  0.31031528  0.36977025     0.02400
C146        C  0.19858013  0.30862415  0.31458173     0.00100
C147        C  0.16580683  0.33798946  0.29237539    -0.11600
C148        C  0.14025386  0.37103443  0.32162878     0.02300
H149        H  0.17884618  0.34356533  0.44117181     0.15300
H150        H  0.15849964  0.33468509  0.25209124     0.15300
C151        C  0.10976774  0.40257900  0.29443776     0.36900
C152        C  0.22849083  0.27466178  0.39816643     0.36800
N153        N  0.08585038  0.42799800  0.27207208    -0.43400
N154        N  0.24815366  0.24599507  0.42249844    -0.43400
C155        C  0.30891233  0.31951721  0.19097585     0.00200
C156        C  0.29760859  0.32537592  0.13820756    -0.11700
C157        C  0.32018530  0.35945819  0.10544892     0.02400
C158        C  0.35586834  0.38742763  0.12482468     0.00100
C159        C  0.36600859  0.38392370  0.17716723    -0.11600
C160        C  0.34486641  0.34894076  0.20955505     0.02300
H161        H  0.27255707  0.30108373  0.12154659     0.15300
H162        H  0.39420143  0.40487849  0.19156670     0.15300
C163        C  0.36879678  0.33814935  0.25553564     0.36900
C164        C  0.30818180  0.36182294  0.05161784     0.36800
N165        N  0.39248163  0.33231133  0.28945584    -0.43400
N166        N  0.29817446  0.36374501  0.00857578    -0.43400
O167        O  0.42868598  0.38787094  0.90664316    -0.75000
O168        O  0.37844461  0.43910540  0.94501015    -0.53900
C169        C  0.38967481  0.40115605  0.91638983     0.78800
O170        O  0.07368465  0.39042249  0.60048290    -0.59600
O171        O  0.12631954  0.43717807  0.55862565    -0.52600
C172        C  0.11346681  0.40191519  0.59048121     0.70800
O173        O  0.42744947  0.40197967  0.60191983    -0.74100
O174        O  0.37606415  0.44315882  0.55507232    -0.54700
C175        C  0.38796378  0.41240407  0.59085535     0.76800
O176        O  0.07337633  0.39443107  0.89528995    -0.59300
O177        O  0.12666560  0.43573044  0.94102593    -0.52400
C178        C  0.11325692  0.40398793  0.90575479     0.73400
Zr179      Zr  0.00200531  0.41798027  0.92509419     2.54700
O180        O  0.00494769  0.32460468  0.93245777    -0.79800
O181        O  0.99781924  0.41572124  0.83094458    -0.93200
Zr182      Zr  0.00199073  0.42046976  0.57671947     2.64700
O183        O  0.49725005  0.32815448  0.57754041    -0.98200
O184        O  0.00374424  0.42748997  0.67068340    -0.80300
O185        O  0.45922738  0.41951073  0.00139818    -0.83600
O186        O  0.04469338  0.41771099  0.50068253    -2.18300
O187        O  0.07743592  0.09387465  0.89586103    -0.67000
O188        O  0.12922997  0.04860624  0.93803312    -0.51600
C189        C  0.11687480  0.08246826  0.90503400     0.71800
O190        O  0.43176523  0.09558597  0.60352147    -0.59900
O191        O  0.37936743  0.05125214  0.55925621    -0.51900
C192        C  0.39199491  0.08385675  0.59377667     0.73600
O193        O  0.07718047  0.09233427  0.60254003    -0.71300
O194        O  0.12972396  0.05089039  0.55813685    -0.50000
C195        C  0.11704403  0.08282299  0.59313518     0.74900
O196        O  0.43368241  0.09637145  0.89674359    -0.66600
O197        O  0.38002511  0.05533716  0.94111327    -0.53800
C198        C  0.39353984  0.08757280  0.90658087     0.73300
Zr199      Zr  0.50508842  0.07034023  0.92233659     2.77500
O200        O  0.50366218  0.16397003  0.91629229    -0.97400
O201        O  0.50654477  0.06195739  0.82853479    -0.78200
Zr202      Zr  0.50420237  0.07307473  0.57363696     2.70100
O203        O  0.00541896  0.16648377  0.56155667    -0.79500
O204        O  0.50260094  0.08206245  0.66752125    -0.98500
Zr205      Zr  0.41910813  0.49748919  0.99923057     2.21500
Zr206      Zr  0.08870441  0.99432335  0.49984021     2.11100
O207        O  0.04781874  0.07215585  0.49852355    -2.47200
O208        O  0.46189168  0.07536236  0.99804554    -0.79300
O209        O  0.04572258  0.99352357  0.92226037    -0.71400
O210        O  0.46081072  0.49799273  0.57669338    -2.32400
O211        O  0.46100516  0.49357553  0.92154243    -2.28600
O212        O  0.04584392  0.99736155  0.57715092    -0.73200
H213        H  0.06220194  0.38726149  0.50072434     0.78800
H214        H  0.44269080  0.49870398  0.60717932     0.79900
H215        H  0.06669369  0.10216724  0.49804124     0.82100
H216        H  0.44273621  0.49275107  0.89132705     0.79700
H217        H  0.48737916  0.39666519  0.68348397     0.42700
H218        H  0.02476572  0.06465078  0.68162077     0.41700
H219        H  0.53556035  0.17573979  0.55664150     0.41400
H220        H  0.01733617  0.17467210  0.95298679     0.39300
H221        H  0.00865988  0.03028915  0.81933087     0.42500
H222        H  0.47241743  0.43077764  0.82164560     0.37200
H223        H  0.49420956  0.31007985  0.90157548     0.43400
H224        H  0.98560903  0.31843932  0.61355919     0.39800
H225        H  0.52415263  0.17310689  0.88816327     0.44700
H226        H  0.00085250  0.37890809  0.82172901     0.43400
H227        H  0.97457745  0.31733018  0.55441711     0.43600
H228        H  0.51433588  0.11711371  0.67439098     0.43900
C229        C  0.22936441  0.21469594  0.77577360    -0.02200
C230        C  0.22747014  0.27543437  0.77874472    -0.02200
C231        C  0.23159515  0.27894166  0.71788153    -0.02200
C232        C  0.23303316  0.21803523  0.71549436    -0.02200
C233        C  0.27986638  0.21764949  0.77978128    -0.02200
C234        C  0.28377118  0.22101157  0.71905417    -0.02200
C235        C  0.28208932  0.28141490  0.72309813    -0.02200
C236        C  0.27760036  0.27838181  0.78376417    -0.02200
C237        C  0.14909177  0.11353400  0.87603308     0.00200
C238        C  0.17577340  0.09101096  0.83880463    -0.11700
C239        C  0.20014463  0.12164017  0.80376897     0.02400
C240        C  0.19869513  0.17669404  0.80618542     0.00100
C241        C  0.16792113  0.19691824  0.84054128    -0.11600
C242        C  0.14602979  0.16720435  0.87705617     0.02300
H243        H  0.17599020  0.04933409  0.83547153     0.15300
H244        H  0.15816006  0.23574728  0.83858741     0.15300
C245        C  0.12008546  0.19315790  0.91541654     0.36900
C246        C  0.22211598  0.09377231  0.76378434     0.36800
N247        N  0.09983615  0.21399613  0.94651163    -0.43400
N248        N  0.23655185  0.06717528  0.73241095    -0.43400
C249        C  0.20592146  0.31375657  0.67879162     0.00200
C250        C  0.17957641  0.29062959  0.64040496    -0.11700
C251        C  0.14900306  0.31814986  0.61230550     0.02400
C252        C  0.14656066  0.37175104  0.61782362     0.00100
C253        C  0.17692022  0.39683481  0.64903141    -0.11600
C254        C  0.20710088  0.36907000  0.67799344     0.02300
H255        H  0.18296835  0.25123243  0.62985264     0.15000
H256        H  0.17749396  0.43866164  0.65013797     0.15300
C257        C  0.24218099  0.40006683  0.69742891     0.36900
C258        C  0.12106778  0.29039683  0.57698421     0.36800
N259        N  0.27019254  0.42825700  0.70773780    -0.43400
N260        N  0.09849777  0.26800749  0.54901736    -0.43400
C261        C  0.31430271  0.18609715  0.68587969     0.00200
C262        C  0.31605556  0.13314660  0.69820752    -0.11700
C263        C  0.33940063  0.09775650  0.66811652     0.02400
C264        C  0.35926542  0.11403874  0.62184913     0.00100
C265        C  0.35635341  0.16539206  0.60783400    -0.11600
C266        C  0.33942307  0.20185656  0.64187143     0.02300
H267        H  0.30142240  0.11978867  0.73343737     0.15300
H268        H  0.37468734  0.17835148  0.57415025     0.15300
C269        C  0.36490886  0.24821824  0.63930551     0.36900
C270        C  0.34385980  0.04580053  0.68664160     0.36800
N271        N  0.39048638  0.28082442  0.63440035    -0.43400
N272        N  0.34765625  0.50457059  0.70123715    -0.43400
C273        C  0.20379303  0.18136756  0.68342234     0.00200
C274        C  0.22051396  0.14890568  0.64444820    -0.11700
C275        C  0.19404699  0.11393747  0.61673497     0.02400
C276        C  0.14894732  0.11303367  0.62503486     0.00100
C277        C  0.13231722  0.14575457  0.66337852    -0.11600
C278        C  0.15845083  0.17974448  0.69141596     0.02300
H279        H  0.25394957  0.15094871  0.63381601     0.15300
H280        H  0.09784610  0.14656064  0.67077965     0.15300
C281        C  0.13595316  0.21631580  0.72328402     0.36900
C282        C  0.21438199  0.07877893  0.58124777     0.36800
N283        N  0.11536498  0.24484913  0.74687390    -0.43400
N284        N  0.22849226  0.05094176  0.05206871    -0.43400
C285        C  0.29985232  0.31213090  0.82630988     0.00200
C286        C  0.32686618  0.28858033  0.86303327    -0.11700
C287        C  0.35466929  0.31678315  0.89488244     0.02400
C288        C  0.35551476  0.37052456  0.89176908     0.00100
C289        C  0.32440051  0.39511445  0.86253944    -0.11600
C290        C  0.29559623  0.36678819  0.83154428     0.02300
H291        H  0.32666267  0.24824881  0.86916678     0.15300
H292        H  0.32277121  0.43686873  0.86373947     0.15300
C293        C  0.25956508  0.39596550  0.81409837     0.36900
C294        C  0.38207538  0.28951277  0.93037506     0.36800
N295        N  0.23110774  0.42312520  0.80590929    -0.43400
N296        N  0.40369549  0.26735701  0.95886633    -0.43400
C297        C  0.36234170  0.11746340  0.87458549     0.00200
C298        C  0.37942976  0.14648249  0.83344916    -0.11700
C299        C  0.35419004  0.17885451  0.80363934     0.02400
C300        C  0.30885136  0.18136882  0.81161403     0.00100
C301        C  0.29182374  0.15287277  0.85379518    -0.11600
C302        C  0.31760360  0.12073308  0.88438366     0.02300
H303        H  0.41372723  0.14533161  0.82487355     0.15300
H304        H  0.25896627  0.15780389  0.86589704     0.15300
C305        C  0.29723469  0.09291612  0.92625128     0.36900
C306        C  0.37818973  0.21021075  0.76765192     0.36800
N307        N  0.28084595  0.07028148  0.95962422    -0.43400
N308        N  0.40155793  0.23225719  0.74034692    -0.43400
C309        C  0.14495890  0.37539401  0.87396615     0.00200
C310        C  0.17629545  0.34531102  0.89782892    -0.11700
C311        C  0.20216553  0.31164533  0.86872502     0.02400
C312        C  0.19826812  0.30904654  0.81360908     0.00100
C313        C  0.16526816  0.33791968  0.79108993    -0.11600
C314        C  0.13979643  0.37146552  0.81994199     0.02300
H315        H  0.17891182  0.34594077  0.93968084     0.15300
H316        H  0.15775130  0.33391285  0.75091946     0.15300
C317        C  0.10951473  0.40303438  0.79241768     0.36900
C318        C  0.22836352  0.27640504  0.89755400     0.36800
N319        N  0.08584099  0.42864269  0.76988600    -0.43400
N320        N  0.24806333  0.24800462  0.92215069    -0.43400
C321        C  0.30868653  0.31940096  0.69031696     0.00200
C322        C  0.29737496  0.32492071  0.63751498    -0.11700
C323        C  0.31972895  0.35912903  0.60466739     0.02400
C324        C  0.35505399  0.38774729  0.62408960     0.00100
C325        C  0.36517456  0.38444716  0.67648387    -0.11600
C326        C  0.34443084  0.34911958  0.70883827     0.02300
H327        H  0.27251920  0.30027387  0.62093343     0.15300
H328        H  0.39318003  0.40572746  0.69091705     0.15300
C329        C  0.36864526  0.33802131  0.75454704     0.36900
C330        C  0.30795367  0.36087271  0.55073319     0.36800
N331        N  0.39236765  0.33179597  0.78835514    -0.43400
N332        N  0.29812049  0.36218741  0.50760508    -0.43400
O333        O  0.42865036  0.88676801  0.40830722    -0.75000
O334        O  0.37861049  0.93920711  0.44525414    -0.53900
C335        C  0.38967956  0.90050895  0.41759757     0.78800
O336        O  0.07337605  0.89230852  0.10158382    -0.59600
O337        O  0.12608931  0.93804284  0.05875223    -0.52600
C338        C  0.11317299  0.90347154  0.09136413     0.70800
O339        O  0.42768265  0.90125219  0.10100141    -0.74100
O340        O  0.37635015  0.94317598  0.05472453    -0.54700
C341        C  0.38819715  0.91202662  0.09018298     0.76800
O342        O  0.07321897  0.89278316  0.39723565    -0.59300
O343        O  0.12665123  0.93509991  0.44184132    -0.52400
C344        C  0.11313761  0.90276913  0.40720688     0.73400
Zr345      Zr  0.00180484  0.91734265  0.42623497     2.54700
O346        O  0.00194108  0.82409064  0.43608594    -0.79800
O347        O  0.99918348  0.91295753  0.33211240    -0.93200
Zr348      Zr  0.00178622  0.92075145  0.07589891     2.64700
O349        O  0.49810195  0.82757174  0.07260758    -0.98200
O350        O  0.00351505  0.92023652  0.17006752    -0.80300
O351        O  0.45945166  0.91957134  0.50147767    -0.83600
O352        O  0.04474168  0.91791935  0.00016212    -2.18300
O353        O  0.07737862  0.59370014  0.39638997    -0.67000
O354        O  0.12932852  0.54947919  0.43943795    -0.51600
C355        C  0.11687918  0.58292858  0.40600244     0.71800
O356        O  0.43159409  0.59627569  0.10286358    -0.59900
O357        O  0.37913409  0.55097873  0.05966475    -0.51900
C358        C  0.39182800  0.58411342  0.09364561     0.73600
O359        O  0.07638742  0.59384225  0.10237597    -0.71300
O360        O  0.12884284  0.55193941  0.05816396    -0.50000
C361        C  0.11621697  0.58409733  0.09304331     0.74900
O362        O  0.43358067  0.59509573  0.39584500    -0.66600
O363        O  0.37980393  0.55456488  0.44047434    -0.53800
C364        C  0.39340120  0.58653273  0.40570353     0.73300
Zr365      Zr  0.50494106  0.56910530  0.42193318     2.77500
O366        O  0.50244645  0.66260073  0.41453957    -0.97400
O367        O  0.50655590  0.55837777  0.32836815    -0.78200
Zr368      Zr  0.50390754  0.57331319  0.07319981     2.70100
O369        O  0.00651240  0.66652990  0.06189283    -0.79500
O370        O  0.50108849  0.58432703  0.16679795    -0.98500
Zr371      Zr  0.41947681  0.99766228  0.49908609     2.21500
Zr372      Zr  0.08863514  0.49503491  0.99908593     2.11100
O373        O  0.04726882  0.57253672  0.99790692    -2.47200
O374        O  0.46178415  0.57483243  0.49760818    -0.79300
O375        O  0.04613221  0.49350335  0.42288829    -0.71400
O376        O  0.46121680  0.99760460  0.07659887    -2.32400
O377        O  0.46125424  0.99372870  0.42134186    -2.28600
O378        O  0.04577416  0.49754436  0.07623907    -0.73200
H379        H  0.06235064  0.88755273  0.00038096     0.78800
H380        H  0.44313815  0.99805508  0.10712907     0.79900
H381        H  0.06598844  0.60268434  0.99748170     0.82100
H382        H  0.44289745  0.99290447  0.39120544     0.79700
H383        H  0.49083302  0.89003108  0.18129302     0.42700
H384        H  0.02298906  0.55752114  0.18056804     0.41700
H385        H  0.51096045  0.68127746  0.09306768     0.41400
H386        H  0.01746976  0.67490210  0.45087098     0.39300
H387        H  0.01643117  0.52704685  0.32188504     0.42500
H388        H  0.47176127  0.93133664  0.32198371     0.37200
H389        H  0.50183800  0.81026816  0.39938421     0.43400
H390        H  0.99029301  0.81573021  0.10590414     0.39800
H391        H  0.52444299  0.67199414  0.38818240     0.44700
H392        H  0.98544382  0.87913367  0.32432545     0.43400
H393        H  0.97036360  0.81989064  0.05047053     0.43600
H394        H  0.51367086  0.61903079  0.17331857     0.43900
C395        C  0.22938518  0.71487414  0.27584650    -0.02200
C396        C  0.22760464  0.77563949  0.27909602    -0.02200
C397        C  0.23145909  0.77943257  0.21820874    -0.02200
C398        C  0.23280361  0.71852587  0.21558027    -0.02200
C399        C  0.27993566  0.71774772  0.27958278    -0.02200
C400        C  0.28359310  0.72138464  0.21886262    -0.02200
C401        C  0.28202643  0.78180805  0.22316034    -0.02200
C402        C  0.27779646  0.77846155  0.28389504    -0.02200
C403        C  0.14899792  0.61402449  0.37668895     0.00200
C404        C  0.17574319  0.59131433  0.33957510    -0.11700
C405        C  0.19991704  0.62173404  0.30408224     0.02400
C406        C  0.19862126  0.67682902  0.30628856     0.00100
C407        C  0.16768153  0.69716161  0.34032818    -0.11600
C408        C  0.14560558  0.66770995  0.37691974     0.02300
H409        H  0.17598714  0.54961811  0.33651482     0.15300
H410        H  0.15778941  0.73591365  0.33786461     0.15300
C411        C  0.11917431  0.69416414  0.41444477     0.36900
C412        C  0.22106267  0.59366665  0.26356099     0.36800
N413        N  0.09867962  0.71591347  0.44466675    -0.43400
N414        N  0.23472677  0.56705358  0.23168664    -0.43400
C415        C  0.20551840  0.81447297  0.17943355     0.00200
C416        C  0.17851036  0.79160520  0.14150443    -0.11700
C417        C  0.14807214  0.81949979  0.11350686     0.02400
C418        C  0.14611730  0.87315398  0.11890593     0.00100
C419        C  0.17678313  0.89790711  0.14996132    -0.11600
C420        C  0.20699378  0.86979957  0.17862547     0.02300
H421        H  0.18131750  0.75212122  0.13108381     0.15000
H422        H  0.17766728  0.93973008  0.15104790     0.15300
C423        C  0.24239145  0.90043724  0.19777956     0.36900
C424        C  0.11999286  0.79218028  0.07794828     0.36800
N425        N  0.27067564  0.92827892  0.20796074    -0.43400
N426        N  0.09738174  0.77037314  0.04955766    -0.43400
C427        C  0.31399467  0.68639971  0.18557171     0.00200
C428        C  0.31512071  0.63327303  0.19740209    -0.11700
C429        C  0.33862532  0.59790418  0.16741714     0.02400
C430        C  0.35916529  0.61441544  0.12166142     0.00100
C431        C  0.35685800  0.66590707  0.10809185    -0.11600
C432        C  0.33973315  0.70225119  0.14207176     0.02300
H433        H  0.29990507  0.61976904  0.23223923     0.15300
H434        H  0.37561489  0.67893109  0.07475738     0.15300
C435        C  0.36508863  0.74870838  0.13956598     0.36900
C436        C  0.34280303  0.54578696  0.18560077     0.36800
N437        N  0.39068753  0.78125802  0.13445833    -0.43400
N438        N  0.34796193  0.00454356  0.20141610    -0.43400
C439        C  0.20335621  0.68203525  0.18358832     0.00200
C440        C  0.21983872  0.65038070  0.14384940    -0.11700
C441        C  0.19320843  0.61586651  0.11580379     0.02400
C442        C  0.14824425  0.61409319  0.12504490     0.00100
C443        C  0.13186260  0.64582716  0.16436746    -0.11600
C444        C  0.15807158  0.67993306  0.19222550     0.02300
H445        H  0.25316019  0.65304648  0.13267738     0.15300
H446        H  0.09748253  0.64598975  0.17245583     0.15300
C447        C  0.13560070  0.71646700  0.22417310     0.36900
C448        C  0.21317741  0.58237649  0.07851628     0.36800
N449        N  0.11501627  0.74507432  0.24768274    -0.43400
N450        N  0.22795823  0.55280985  0.55089225    -0.43400
C451        C  0.30015122  0.81181308  0.32677155     0.00200
C452        C  0.32720951  0.78801343  0.36338663    -0.11700
C453        C  0.35471338  0.81608423  0.39581596     0.02400
C454        C  0.35539791  0.86984308  0.39317699     0.00100
C455        C  0.32426412  0.89452405  0.36408212    -0.11600
C456        C  0.29573692  0.86639855  0.33256329     0.02300
H457        H  0.32726781  0.74760756  0.36900287     0.15300
H458        H  0.32254427  0.93626339  0.36558101     0.15300
C459        C  0.25998956  0.89578338  0.31465661     0.36900
C460        C  0.38188651  0.78883888  0.43161650     0.36800
N461        N  0.23172913  0.92314271  0.30618417    -0.43400
N462        N  0.40340236  0.76706483  0.46052904    -0.43400
C463        C  0.36228325  0.61654279  0.37359309     0.00200
C464        C  0.37944358  0.64564757  0.33249712    -0.11700
C465        C  0.35428726  0.67843063  0.30292763     0.02400
C466        C  0.30896827  0.68116144  0.31102315     0.00100
C467        C  0.29193034  0.65260450  0.35309520    -0.11600
C468        C  0.31756887  0.62014971  0.38346998     0.02300
H469        H  0.41373563  0.64439644  0.32392387     0.15300
H470        H  0.25916438  0.65783263  0.36538556     0.15300
C471        C  0.29696924  0.59249599  0.42525995     0.36900
C472        C  0.37832840  0.71040066  0.26749501     0.36800
N473        N  0.28009795  0.57015332  0.45848363    -0.43400
N474        N  0.40162635  0.73320721  0.24072758    -0.43400
C475        C  0.14481622  0.87439797  0.37525596     0.00200
C476        C  0.17621223  0.84421354  0.39882543    -0.11700
C477        C  0.20227882  0.81107525  0.36937547     0.02400
C478        C  0.19846524  0.80909065  0.31422483     0.00100
C479        C  0.16539998  0.83814160  0.29198337    -0.11600
C480        C  0.13974266  0.87116549  0.32122062     0.02300
H481        H  0.17875090  0.84437683  0.44068751     0.15300
H482        H  0.15784310  0.83454055  0.25180119     0.15300
C483        C  0.10909604  0.90274583  0.29428069     0.36900
C484        C  0.22856725  0.77569326  0.39789608     0.36800
N485        N  0.08496855  0.92845868  0.27258270    -0.43400
N486        N  0.24831294  0.74723547  0.42237010    -0.43400
C487        C  0.30864104  0.81973957  0.19020435     0.00200
C488        C  0.29719355  0.82525993  0.13741634    -0.11700
C489        C  0.31956137  0.85936996  0.10440926     0.02400
C490        C  0.35522439  0.88759177  0.12354839     0.00100
C491        C  0.36539310  0.88445434  0.17592179    -0.11600
C492        C  0.34445640  0.84951005  0.20854563     0.02300
H493        H  0.27203634  0.80091083  0.12104265     0.15300
H494        H  0.39348844  0.90567753  0.19019620     0.15300
C495        C  0.36839426  0.83910023  0.25462407     0.36900
C496        C  0.30702524  0.86200901  0.05075802     0.36800
N497        N  0.39195729  0.83350853  0.28871239    -0.43400
N498        N  0.29645554  0.86424745  0.00792407    -0.43400
O499        O  0.42932076  0.88864326  0.90638618    -0.75000
O500        O  0.37894395  0.94002982  0.94425044    -0.53900
C501        C  0.39028605  0.90192179  0.91588340     0.78800
O502        O  0.07363959  0.89198143  0.60249933    -0.59600
O503        O  0.12629944  0.93691246  0.55872697    -0.52600
C504        C  0.11340825  0.90257842  0.59157916     0.70800
O505        O  0.42816831  0.90055409  0.60094518    -0.74100
O506        O  0.37681284  0.94285200  0.55505095    -0.54700
C507        C  0.38870948  0.91148855  0.59027253     0.76800
O508        O  0.07340092  0.89373157  0.89600958    -0.59300
O509        O  0.12664864  0.93542747  0.94148485    -0.52400
C510        C  0.11327985  0.90341887  0.90645505     0.73400
Zr511      Zr  0.00184758  0.91794293  0.92470517     2.54700
O512        O  0.00332678  0.82469952  0.93430579    -0.79800
O513        O  0.99879478  0.91373152  0.83058095    -0.93200
Zr514      Zr  0.00217409  0.92169585  0.57778599     2.64700
O515        O  0.49945149  0.82748152  0.58063766    -0.98200
O516        O  0.00309849  0.92895640  0.67172597    -0.80300
O517        O  0.45939231  0.92042338  0.00068331    -0.83600
O518        O  0.04473797  0.91776201  0.50167798    -2.18300
O519        O  0.07752726  0.59393517  0.89619660    -0.67000
O520        O  0.12958493  0.54953460  0.93880504    -0.51600
C521        C  0.11704597  0.58317182  0.90571473     0.71800
O522        O  0.43103311  0.59672226  0.60263363    -0.59900
O523        O  0.37870034  0.55143245  0.55915041    -0.51900
C524        C  0.39130591  0.58455295  0.59316759     0.73600
O525        O  0.07591580  0.59317872  0.60389612    -0.71300
O526        O  0.12830670  0.55114189  0.55970701    -0.50000
C527        C  0.11571807  0.58331438  0.59462029     0.74900
O528        O  0.43331028  0.59341388  0.89509907    -0.66600
O529        O  0.37963900  0.55418741  0.94103011    -0.53800
C530        C  0.39315546  0.58544329  0.90558420     0.73300
Zr531      Zr  0.50497376  0.56884847  0.92151202     2.77500
O532        O  0.50184677  0.66246052  0.91779028    -0.97400
O533        O  0.50775427  0.56331161  0.82752089    -0.78200
Zr534      Zr  0.50362337  0.57368778  0.57399925     2.70100
O535        O  0.00660126  0.66535213  0.56267807    -0.79500
O536        O  0.50146687  0.58078317  0.66803980    -0.98500
Zr537      Zr  0.41921585  0.99830722  0.99913573     2.21500
Zr538      Zr  0.08853090  0.49444543  0.49988785     2.11100
O539        O  0.04715770  0.57181054  0.49899264    -2.47200
O540        O  0.46178176  0.57445133  0.99717086    -0.79300
O541        O  0.04598479  0.49343484  0.92220202    -0.71400
O542        O  0.46145388  0.99732365  0.57651473    -2.32400
O543        O  0.46113390  0.99515064  0.92155217    -2.28600
O544        O  0.04542328  0.49631543  0.57688082    -0.73200
H545        H  0.06219622  0.88727213  0.50199752     0.78800
H546        H  0.44339309  0.99787522  0.60705526     0.79900
H547        H  0.06592364  0.60191912  0.49876999     0.82100
H548        H  0.44285924  0.99465711  0.89134158     0.79700
H549        H  0.48370695  0.90533718  0.68390069     0.42700
H550        H  0.02549173  0.55762512  0.68113615     0.41700
H551        H  0.50959978  0.68065693  0.59907949     0.41400
H552        H  0.01470024  0.67580920  0.94806793     0.39300
H553        H  0.01525794  0.52660241  0.82093611     0.42500
H554        H  0.47473742  0.93953680  0.82145490     0.37200
H555        H  0.49362607  0.81262505  0.89768894     0.43400
H556        H  0.98489879  0.81963164  0.61412201     0.39800
H557        H  0.52125156  0.67257130  0.88890308     0.44700
H558        H  0.99407851  0.87674464  0.82260497     0.43400
H559        H  0.97554130  0.81851034  0.55457803     0.43600
H560        H  0.51454510  0.61494375  0.67595000     0.43900
C561        C  0.22962234  0.71509235  0.77626802    -0.02200
C562        C  0.22790078  0.77584547  0.77904957    -0.02200
C563        C  0.23176657  0.77916134  0.71816640    -0.02200
C564        C  0.23296906  0.71824578  0.71598790    -0.02200
C565        C  0.28015370  0.71785545  0.78000760    -0.02200
C566        C  0.28376753  0.72105509  0.71927029    -0.02200
C567        C  0.28231307  0.78148971  0.72310143    -0.02200
C568        C  0.27806737  0.77861652  0.78378332    -0.02200
C569        C  0.14912130  0.61442875  0.87675925     0.00200
C570        C  0.17629893  0.59174950  0.84017128    -0.11700
C571        C  0.20048202  0.62215872  0.80480759     0.02400
C572        C  0.19894640  0.67722741  0.80684834     0.00100
C573        C  0.16789253  0.69761147  0.84073974    -0.11600
C574        C  0.14553076  0.66807406  0.87699688     0.02300
H575        H  0.17681845  0.55004263  0.83734411     0.15300
H576        H  0.15811283  0.73641845  0.83836611     0.15300
C577        C  0.11849617  0.69426011  0.91411459     0.36900
C578        C  0.22209545  0.59399974  0.76473519     0.36800
N579        N  0.09735482  0.71551189  0.94405615    -0.43400
N580        N  0.23607210  0.56712818  0.73329028    -0.43400
C581        C  0.20598829  0.81393301  0.67917482     0.00200
C582        C  0.17890306  0.79082447  0.64149493    -0.11700
C583        C  0.14830800  0.81855034  0.61362189     0.02400
C584        C  0.14641856  0.87222654  0.61881017     0.00100
C585        C  0.17728016  0.89715310  0.64941043    -0.11600
C586        C  0.20754747  0.86922584  0.67805773     0.02300
H587        H  0.18166427  0.75126764  0.63131239     0.15000
H588        H  0.17819060  0.93898373  0.65024763     0.15300
C589        C  0.24294747  0.90000587  0.69697156     0.36900
C590        C  0.11991598  0.79098691  0.57862110     0.36800
N591        N  0.27115904  0.92801831  0.70696632    -0.43400
N592        N  0.09706688  0.76884112  0.55076550    -0.43400
C593        C  0.31412148  0.68620940  0.68596870     0.00200
C594        C  0.31546030  0.63313821  0.69774589    -0.11700
C595        C  0.33866721  0.59791084  0.66734300     0.02400
C596        C  0.35858125  0.61457343  0.62124313     0.00100
C597        C  0.35611364  0.66612910  0.60784713    -0.11600
C598        C  0.33961087  0.70230973  0.64242630     0.02300
H599        H  0.30086500  0.61965061  0.73294066     0.15300
H600        H  0.37468792  0.67933452  0.57444358     0.15300
C601        C  0.36600726  0.74803149  0.64112935     0.36900
C602        C  0.34354116  0.54595427  0.68573383     0.36800
N603        N  0.39214108  0.78014537  0.63721650    -0.43400
N604        N  0.34740292  0.00437110  0.70225003    -0.43400
C605        C  0.20327743  0.68152829  0.68444008     0.00200
C606        C  0.21957476  0.64945545  0.64492790    -0.11700
C607        C  0.19277648  0.61482586  0.61721319     0.02400
C608        C  0.14783196  0.61326327  0.62659348     0.00100
C609        C  0.13162178  0.64525181  0.66581867    -0.11600
C610        C  0.15798084  0.67959603  0.69325802     0.02300
H611        H  0.25289948  0.65188553  0.63369989     0.15300
H612        H  0.09725908  0.64550197  0.67403278     0.15300
C613        C  0.13563410  0.71646437  0.72494952     0.36900
C614        C  0.21250394  0.58097778  0.58004165     0.36800
N615        N  0.11511317  0.74528181  0.74828070    -0.43400
N616        N  0.22900413  0.55453271  0.04935730    -0.43400
C617        C  0.30054285  0.81248057  0.82599273     0.00200
C618        C  0.32782083  0.78901765  0.86245430    -0.11700
C619        C  0.35562297  0.81733404  0.89421495     0.02400
C620        C  0.35625273  0.87110806  0.89121306     0.00100
C621        C  0.32510116  0.89557861  0.86193774    -0.11600
C622        C  0.29626962  0.86714172  0.83108644     0.02300
H623        H  0.32791242  0.74863415  0.86830762     0.15300
H624        H  0.32343221  0.93733307  0.86303058     0.15300
C625        C  0.26021888  0.89623443  0.81355494     0.36900
C626        C  0.38331921  0.79010185  0.92940005     0.36800
N627        N  0.23173778  0.92332118  0.80524138    -0.43400
N628        N  0.40517726  0.76791122  0.95759675    -0.43400
C629        C  0.36203621  0.61559885  0.87361092     0.00200
C630        C  0.37926518  0.64484508  0.83269982    -0.11700
C631        C  0.35428024  0.67803911  0.80344933     0.02400
C632        C  0.30902206  0.68120907  0.81167464     0.00100
C633        C  0.29191399  0.65262957  0.85372330    -0.11600
C634        C  0.31736428  0.61947180  0.88359200     0.02300
H635        H  0.41353042  0.64339906  0.82401467     0.15300
H636        H  0.25924710  0.65814379  0.86625169     0.15300
C637        C  0.29658039  0.59085735  0.92457284     0.36900
C638        C  0.37858267  0.70997383  0.76830636     0.36800
N639        N  0.27965013  0.56746891  0.95701417    -0.43400
N640        N  0.40240710  0.73252969  0.74200670    -0.43400
C641        C  0.14504720  0.87498211  0.87464477     0.00200
C642        C  0.17659098  0.84509495  0.89836471    -0.11700
C643        C  0.20267969  0.81181772  0.86908518     0.02400
C644        C  0.19879241  0.80947025  0.81397249     0.00100
C645        C  0.16567204  0.83826460  0.79156700    -0.11600
C646        C  0.13987946  0.87127234  0.82062346     0.02300
H647        H  0.17919200  0.84553488  0.94021881     0.15300
H648        H  0.15815345  0.83440511  0.75138714     0.15300
C649        C  0.10881408  0.90207658  0.79346329     0.36900
C650        C  0.22905712  0.77660483  0.89770744     0.36800
N651        N  0.08428534  0.92700859  0.77149048    -0.43400
N652        N  0.24889085  0.74821515  0.92215843    -0.43400
C653        C  0.30911758  0.81926682  0.69014497     0.00200
C654        C  0.29786193  0.82457356  0.63727042    -0.11700
C655        C  0.32032672  0.85860475  0.60429065     0.02400
C656        C  0.35579796  0.88699668  0.62354995     0.00100
C657        C  0.36580452  0.88411571  0.67594199    -0.11600
C658        C  0.34492110  0.84912287  0.70853247     0.02300
H659        H  0.27271779  0.80022452  0.62086929     0.15300
H660        H  0.39382025  0.90549221  0.69022783     0.15300
C661        C  0.36926754  0.83849086  0.75425538     0.36900
C662        C  0.30802908  0.86129733  0.55057228     0.36800
N663        N  0.39329916  0.83293916  0.78788013    -0.43400
N664        N  0.29780962  0.86379516  0.50763565    -0.43400
O665        O  0.92950591  0.38660901  0.40748542    -0.75000
O666        O  0.87910379  0.43830105  0.44492074    -0.53900
C667        C  0.89047148  0.39996562  0.41690232     0.78800
O668        O  0.57418615  0.39237216  0.10165001    -0.59600
O669        O  0.62676402  0.43796085  0.05844970    -0.52600
C670        C  0.61395347  0.40341203  0.09112992     0.70800
O671        O  0.92828375  0.40099094  0.10152312    -0.74100
O672        O  0.87681893  0.44288052  0.05535715    -0.54700
C673        C  0.88878791  0.41174599  0.09075237     0.76800
O674        O  0.57370094  0.39398462  0.39667991    -0.59300
O675        O  0.62695611  0.43543245  0.44237645    -0.52400
C676        C  0.61360486  0.40352362  0.40719684     0.73400
Zr677      Zr  0.50208816  0.41764140  0.42598623     2.54700
O678        O  0.50386791  0.32458480  0.43684666    -0.79800
O679        O  0.49876848  0.41279133  0.33190206    -0.93200
Zr680      Zr  0.50245181  0.42117588  0.07675376     2.64700
O681        O  0.99903832  0.32771897  0.07678504    -0.98200
O682        O  0.50433054  0.42489021  0.17084881    -0.80300
O683        O  0.95938439  0.41951055  0.50086960    -0.83600
O684        O  0.54497419  0.41771601  0.00070008    -2.18300
O685        O  0.57834870  0.09262013  0.39563958    -0.67000
O686        O  0.63021792  0.04800121  0.43832112    -0.51600
C687        C  0.61784719  0.08155426  0.40503747     0.71800
O688        O  0.93108037  0.09623685  0.10250170    -0.59900
O689        O  0.87873832  0.05146473  0.05854941    -0.51900
C690        C  0.89133839  0.08443658  0.09270608     0.73600
O691        O  0.57622457  0.09371738  0.10308221    -0.71300
O692        O  0.62868958  0.05273769  0.05806192    -0.50000
C693        C  0.61603498  0.08449715  0.09328283     0.74900
O694        O  0.93427239  0.09495771  0.39555081    -0.66600
O695        O  0.88053874  0.05465109  0.44046563    -0.53800
C696        C  0.89411753  0.08645376  0.40550834     0.73300
Zr697      Zr  0.00535957  0.06906935  0.42242419     2.77500
O698        O  0.00334100  0.16279991  0.41892075    -0.97400
O699        O  0.00685636  0.06137399  0.32859368    -0.78200
Zr700      Zr  0.00364439  0.07311610  0.07374443     2.70100
O701        O  0.50662172  0.16640136  0.06117090    -0.79500
O702        O  0.00054527  0.08428740  0.16734453    -0.98500
Zr703      Zr  0.91898321  0.49740126  0.49920086     2.21500
Zr704      Zr  0.58864150  0.99529482  0.99944652     2.11100
O705        O  0.54749979  0.07292782  0.99851552    -2.47200
O706        O  0.96218533  0.07469874  0.49801122    -0.79300
O707        O  0.54595723  0.99251767  0.42227255    -0.71400
O708        O  0.96131390  0.49754997  0.07641978    -2.32400
O709        O  0.96092869  0.49421368  0.42170747    -2.28600
O710        O  0.54549714  0.99732207  0.07648146    -0.73200
H711        H  0.56255300  0.38732456  0.00099046     0.78800
H712        H  0.94330041  0.49806613  0.10700162     0.79900
H713        H  0.56629611  0.10301112  0.99820874     0.82100
H714        H  0.94263865  0.49368956  0.39151350     0.79700
H715        H  0.99350624  0.39372770  0.18289556     0.42700
H716        H  0.52447810  0.06221756  0.18135548     0.41700
H717        H  0.01441719  0.18070407  0.09380312     0.41400
H718        H  0.51502962  0.17424152  0.45231229     0.39300
H719        H  0.48735331  0.03755813  0.31790358     0.42500
H720        H  0.97205345  0.43803783  0.32249631     0.37200
H721        H  0.00197666  0.31356665  0.39059871     0.43400
H722        H  0.48708384  0.31753436  0.10944319     0.39800
H723        H  0.02423309  0.17287892  0.39154720     0.44700
H724        H  0.49232741  0.37607924  0.32425207     0.43400
H725        H  0.47536371  0.31886410  0.05054033     0.43600
H726        H  0.01257288  0.11928067  0.17377867     0.43900
C727        C  0.72970389  0.21464087  0.27580520    -0.02200
C728        C  0.72788384  0.27539474  0.27922542    -0.02200
C729        C  0.73175155  0.27932490  0.21831024    -0.02200
C730        C  0.73303611  0.21845364  0.21556288    -0.02200
C731        C  0.78025014  0.21745834  0.27949166    -0.02200
C732        C  0.78382434  0.22123370  0.21878341    -0.02200
C733        C  0.78229419  0.28160781  0.22321268    -0.02200
C734        C  0.77807448  0.27814072  0.28393316    -0.02200
C735        C  0.65005114  0.11275664  0.37605407     0.00200
C736        C  0.67669530  0.09042511  0.33862351    -0.11700
C737        C  0.70071256  0.12124486  0.30336380     0.02400
C738        C  0.69918515  0.17631168  0.30603365     0.00100
C739        C  0.66851146  0.19630620  0.34060072    -0.11600
C740        C  0.64682851  0.16642053  0.37715329     0.02300
H741        H  0.67702091  0.04875899  0.33518897     0.15300
H742        H  0.65872597  0.23514566  0.33879567     0.15300
C743        C  0.62096017  0.19224505  0.41568021     0.36900
C744        C  0.72215863  0.09358557  0.26278761     0.36800
N745        N  0.60080839  0.21306698  0.44688967    -0.43400
N746        N  0.73611272  0.06720126  0.23090494    -0.43400
C747        C  0.70605023  0.31439078  0.17936319     0.00200
C748        C  0.67956066  0.29160487  0.14086639    -0.11700
C749        C  0.64916220  0.31947906  0.11279915     0.02400
C750        C  0.64697853  0.37308956  0.11849242     0.00100
C751        C  0.67735900  0.39782273  0.14994918    -0.11600
C752        C  0.70741476  0.36969606  0.17880197     0.02300
H753        H  0.68268741  0.25222155  0.13015441     0.15000
H754        H  0.67809390  0.43963982  0.15128518     0.15300
C755        C  0.74265195  0.40030670  0.19835818     0.36900
C756        C  0.62098599  0.29209363  0.07741565     0.36800
N757        N  0.77083983  0.42817873  0.20879782    -0.43400
N758        N  0.59815319  0.27014922  0.04938746    -0.43400
C759        C  0.81416245  0.18642962  0.18530633     0.00200
C760        C  0.81562205  0.13337774  0.19720594    -0.11700
C761        C  0.83875616  0.09809260  0.16679660     0.02400
C762        C  0.85859317  0.11460763  0.12063675     0.00100
C763        C  0.85589463  0.16607078  0.10695842    -0.11600
C764        C  0.83933857  0.20239294  0.14141060     0.02300
H765        H  0.80104929  0.11987210  0.23241265     0.15300
H766        H  0.87428920  0.17914032  0.07336299     0.15300
C767        C  0.86541375  0.24834468  0.13945630     0.36900
C768        C  0.84341696  0.04605308  0.18500080     0.36800
N769        N  0.89138971  0.28056123  0.13493387    -0.43400
N770        N  0.84633811  0.50411056  0.20147092    -0.43400
C771        C  0.70335816  0.18230541  0.18355199     0.00200
C772        C  0.71973697  0.15031255  0.14403726    -0.11700
C773        C  0.69300415  0.11580544  0.11617984     0.02400
C774        C  0.64800436  0.11473181  0.12504206     0.00100
C775        C  0.63163776  0.14709338  0.16386944    -0.11600
C776        C  0.65802158  0.18082431  0.19194142     0.02300
H777        H  0.75313448  0.15239989  0.13316194     0.15300
H778        H  0.59721311  0.14781575  0.17161001     0.15300
C779        C  0.63574552  0.21729192  0.22419197     0.36900
C780        C  0.71293727  0.08114912  0.07992500     0.36800
N781        N  0.61520035  0.24569531  0.24800976    -0.43400
N782        N  0.72907357  0.05191388  0.55094750    -0.43400
C783        C  0.80048128  0.31140957  0.32670127     0.00200
C784        C  0.82734616  0.28757308  0.36346540    -0.11700
C785        C  0.85523312  0.31561562  0.39543916     0.02400
C786        C  0.85637945  0.36934727  0.39220874     0.00100
C787        C  0.82552923  0.39415292  0.36280326    -0.11600
C788        C  0.79650321  0.36605336  0.33199251     0.02300
H789        H  0.82682738  0.24721210  0.36962670     0.15300
H790        H  0.82418379  0.43593214  0.36385987     0.15300
C791        C  0.76048248  0.39543758  0.31494474     0.36900
C792        C  0.88224244  0.28837566  0.43140301     0.36800
N793        N  0.73207970  0.42278578  0.30714798    -0.43400
N794        N  0.90360456  0.26653464  0.46042676    -0.43400
C795        C  0.86297056  0.11642532  0.37339078     0.00200
C796        C  0.88009812  0.14602641  0.33263495    -0.11700
C797        C  0.85479579  0.17860806  0.30299681     0.02400
C798        C  0.80942846  0.18096020  0.31093824     0.00100
C799        C  0.79245133  0.15196807  0.35278105    -0.11600
C800        C  0.81819177  0.11944870  0.38298486     0.02300
H801        H  0.91444533  0.14520754  0.32429393     0.15300
H802        H  0.75964235  0.15684898  0.36504183     0.15300
C803        C  0.79767927  0.09099870  0.42431754     0.36900
C804        C  0.87873881  0.21051327  0.26742958     0.36800
N805        N  0.78112656  0.06787210  0.45723690    -0.43400
N806        N  0.90210639  0.23313208  0.24059197    -0.43400
C807        C  0.64537170  0.37491244  0.37533839     0.00200
C808        C  0.67665303  0.34452823  0.39898521    -0.11700
C809        C  0.70256561  0.31103867  0.36961334     0.02400
C810        C  0.69874372  0.30886725  0.31445473     0.00100
C811        C  0.66581746  0.33804975  0.29217080    -0.11600
C812        C  0.64030386  0.37137088  0.32127754     0.02300
H813        H  0.67920221  0.34479311  0.44084375     0.15300
H814        H  0.65834211  0.33440892  0.25196152     0.15300
C815        C  0.60987499  0.40296760  0.29402981     0.36900
C816        C  0.72867005  0.27548188  0.39818257     0.36800
N817        N  0.58597708  0.42859335  0.27186717    -0.43400
N818        N  0.74821805  0.24677181  0.42259489    -0.43400
C819        C  0.80899221  0.31948274  0.19031702     0.00200
C820        C  0.79766865  0.32507405  0.13748465    -0.11700
C821        C  0.82023925  0.35910775  0.10460495     0.02400
C822        C  0.85584602  0.38722273  0.12396462     0.00100
C823        C  0.86586760  0.38406935  0.17633106    -0.11600
C824        C  0.84483456  0.34911092  0.20878799     0.02300
H825        H  0.77253141  0.30079780  0.12096996     0.15300
H826        H  0.89393865  0.40526686  0.19072002     0.15300
C827        C  0.86882606  0.33846444  0.25474028     0.36900
C828        C  0.80804650  0.36190172  0.05084137     0.36800
N829        N  0.89250640  0.33275626  0.28868535    -0.43400
N830        N  0.79796608  0.36451422  0.00786091    -0.43400
O831        O  0.92912660  0.38672958  0.90816435    -0.75000
O832        O  0.87881967  0.43907957  0.94479481    -0.53900
C833        C  0.89009858  0.40042340  0.91713962     0.78800
O834        O  0.57354407  0.39241639  0.60233119    -0.59600
O835        O  0.62624922  0.43845545  0.55977126    -0.52600
C836        C  0.61336120  0.40363805  0.59214843     0.70800
O837        O  0.92743158  0.40000593  0.60049625    -0.74100
O838        O  0.87609222  0.44270328  0.55491667    -0.54700
C839        C  0.88798391  0.41114515  0.58994559     0.76800
O840        O  0.57314724  0.39279694  0.89617801    -0.59300
O841        O  0.62646711  0.43459465  0.94151561    -0.52400
C842        C  0.61303276  0.40246205  0.90662288     0.73400
Zr843      Zr  0.50180466  0.41720462  0.92542169     2.54700
O844        O  0.50241037  0.32402580  0.93591385    -0.79800
O845        O  0.49890027  0.41229203  0.83131328    -0.93200
Zr846      Zr  0.50194143  0.42187710  0.57740349     2.64700
O847        O  0.99783492  0.32671471  0.57905591    -0.98200
O848        O  0.50351558  0.42763505  0.67142574    -0.80300
O849        O  0.95951453  0.42003278  0.00117708    -0.83600
O850        O  0.54485374  0.41831985  0.50155823    -2.18300
O851        O  0.57762519  0.09438223  0.89629355    -0.67000
O852        O  0.62951852  0.04903842  0.93814945    -0.51600
C853        C  0.61706914  0.08291514  0.90521432     0.71800
O854        O  0.93153841  0.09579159  0.60345945    -0.59900
O855        O  0.87904585  0.05175400  0.55902899    -0.51900
C856        C  0.89176394  0.08425573  0.59354774     0.73600
O857        O  0.57666632  0.09381700  0.60184912    -0.71300
O858        O  0.62904605  0.05201057  0.55747929    -0.50000
C859        C  0.61646383  0.08427831  0.59229478     0.74900
O860        O  0.93343493  0.09393550  0.89485207    -0.66600
O861        O  0.87977219  0.05423831  0.94036732    -0.53800
C862        C  0.89329782  0.08565758  0.90510316     0.73300
Zr863      Zr  0.00488777  0.06981620  0.92210177     2.77500
O864        O  0.00172942  0.16353782  0.92145637    -0.97400
O865        O  0.00742350  0.06740409  0.82800305    -0.78200
Zr866      Zr  0.00420534  0.07351427  0.57418993     2.70100
O867        O  0.50478243  0.16612646  0.56176319    -0.79500
O868        O  0.00139207  0.08608551  0.66762546    -0.98500
Zr869      Zr  0.91911316  0.49784690  0.99915222     2.21500
Zr870      Zr  0.58877306  0.99437486  0.49904419     2.11100
O871        O  0.54776207  0.07204609  0.49777350    -2.47200
O872        O  0.96160225  0.07472901  0.99765201    -0.79300
O873        O  0.54610200  0.99428354  0.92261645    -0.71400
O874        O  0.96082160  0.49657427  0.57676628    -2.32400
O875        O  0.96091450  0.49415120  0.92144135    -2.28600
O876        O  0.54601254  0.99707269  0.57622971    -0.73200
H877        H  0.56244627  0.38794334  0.50193878     0.78800
H878        H  0.94266706  0.49697826  0.60723321     0.79900
H879        H  0.56662040  0.10206751  0.49724810     0.82100
H880        H  0.94263259  0.49338267  0.89123245     0.79700
H881        H  0.01516960  0.39415555  0.68258896     0.42700
H882        H  0.52505935  0.05855583  0.68024999     0.41700
H883        H  0.03486857  0.17786119  0.57165221     0.41400
H884        H  0.51771740  0.17642711  0.94838757     0.39300
H885        H  0.52651911  0.03329245  0.82173650     0.42500
H886        H  0.96744721  0.42357901  0.82266017     0.37200
H887        H  0.00281125  0.31180390  0.89642600     0.43400
H888        H  0.48530433  0.31917930  0.61200474     0.39800
H889        H  0.02061684  0.17447501  0.89237852     0.44700
H890        H  0.49216601  0.37565132  0.82365835     0.43400
H891        H  0.47367394  0.31958649  0.55304969     0.43600
H892        H  0.01149235  0.12207091  0.67309571     0.43900
C893        C  0.72950310  0.21459263  0.77554955    -0.02200
C894        C  0.72775242  0.27533687  0.77886508    -0.02200
C895        C  0.73180759  0.27911391  0.71800715    -0.02200
C896        C  0.73312533  0.21822837  0.71532245    -0.02200
C897        C  0.78001014  0.21742631  0.77962215    -0.02200
C898        C  0.78385634  0.22101937  0.71892257    -0.02200
C899        C  0.78230817  0.28139320  0.72315791    -0.02200
C900        C  0.77790148  0.27814321  0.78385009    -0.02200
C901        C  0.64911507  0.11382330  0.87580623     0.00200
C902        C  0.67576133  0.09106167  0.83863737    -0.11700
C903        C  0.70008177  0.12150892  0.80336370     0.02400
C904        C  0.69865135  0.17656842  0.80560767     0.00100
C905        C  0.66758599  0.19688971  0.83943390    -0.11600
C906        C  0.64577536  0.16749036  0.87619077     0.02300
H907        H  0.67602157  0.04936637  0.83557624     0.15300
H908        H  0.65754636  0.23557967  0.83685384     0.15300
C909        C  0.61984465  0.19394397  0.91422741     0.36900
C910        C  0.72198833  0.09352592  0.76338079     0.36800
N911        N  0.59979297  0.21556341  0.94497076    -0.43400
N912        N  0.73640816  0.06692332  0.73199517    -0.43400
C913        C  0.70611529  0.31433318  0.67924175     0.00200
C914        C  0.67951709  0.29169610  0.64082949    -0.11700
C915        C  0.64882931  0.31962286  0.61326547     0.02400
C916        C  0.64642534  0.37319318  0.61941893     0.00100
C917        C  0.67701375  0.39784344  0.65070305    -0.11600
C918        C  0.70741233  0.36963149  0.67897094     0.02300
H919        H  0.68283398  0.25238722  0.62983775     0.15000
H920        H  0.67769091  0.43965084  0.65228650     0.15300
C921        C  0.74276270  0.40014025  0.69840934     0.36900
C922        C  0.62085376  0.29234541  0.57761094     0.36800
N923        N  0.77101342  0.42789535  0.70891423    -0.43400
N924        N  0.59832690  0.27035128  0.54927968    -0.43400
C925        C  0.81437137  0.18617719  0.68579621     0.00200
C926        C  0.81604078  0.13320243  0.69801306    -0.11700
C927        C  0.83958280  0.09798684  0.66802742     0.02400
C928        C  0.85911883  0.11434793  0.62161759     0.00100
C929        C  0.85608658  0.16568616  0.60756655    -0.11600
C930        C  0.83955283  0.20208526  0.64191726     0.02300
H931        H  0.80132902  0.11971758  0.73314640     0.15300
H932        H  0.87432709  0.17869450  0.57383113     0.15300
C933        C  0.86575565  0.24796034  0.64010325     0.36900
C934        C  0.84493758  0.04630308  0.68699496     0.36800
N935        N  0.89173974  0.28020078  0.63580916    -0.43400
N936        N  0.84667352  0.50383492  0.70126241    -0.43400
C937        C  0.70369447  0.18197743  0.68304143     0.00200
C938        C  0.72025179  0.14962605  0.64387150    -0.11700
C939        C  0.69352599  0.11529185  0.61569386     0.02400
C940        C  0.64844761  0.11460633  0.62403571     0.00100
C941        C  0.63198899  0.14724267  0.66257207    -0.11600
C942        C  0.65832451  0.18074338  0.69094642     0.02300
H943        H  0.75375818  0.15133158  0.63345234     0.15300
H944        H  0.59752187  0.14830421  0.66993308     0.15300
C945        C  0.63601118  0.21728877  0.72304799     0.36900
C946        C  0.71345230  0.08067136  0.57937994     0.36800
N947        N  0.61551528  0.24582801  0.74675224    -0.43400
N948        N  0.72863707  0.05228015  0.05167802    -0.43400
C949        C  0.80026077  0.31164160  0.82654857     0.00200
C950        C  0.82729212  0.28790820  0.86314891    -0.11700
C951        C  0.85512971  0.31597764  0.89514315     0.02400
C952        C  0.85600336  0.36975345  0.89231033     0.00100
C953        C  0.82502969  0.39446357  0.86295794    -0.11600
C954        C  0.79611360  0.36628188  0.83198591     0.02300
H955        H  0.82705258  0.24752469  0.86906582     0.15300
H956        H  0.82349961  0.43622592  0.86417189     0.15300
C957        C  0.75998378  0.39554303  0.81501722     0.36900
C958        C  0.88256045  0.28856974  0.93048894     0.36800
N959        N  0.73152372  0.42280571  0.80720258    -0.43400
N960        N  0.90428750  0.26640936  0.95885792    -0.43400
C961        C  0.86215066  0.11562664  0.87311885     0.00200
C962        C  0.87935109  0.14512122  0.83237546    -0.11700
C963        C  0.85427383  0.17824932  0.80321552     0.02400
C964        C  0.80894614  0.18086684  0.81121138     0.00100
C965        C  0.79181330  0.15187478  0.85296998    -0.11600
C966        C  0.81744860  0.11913921  0.88307865     0.02300
H967        H  0.91364920  0.14396672  0.82380365     0.15300
H968        H  0.75900357  0.15693564  0.86519749     0.15300
C969        C  0.79700661  0.09119508  0.92481864     0.36900
C970        C  0.87844470  0.21039600  0.76809237     0.36800
N971        N  0.78055821  0.06856529  0.95815602    -0.43400
N972        N  0.90203548  0.23310360  0.74161373    -0.43400
C973        C  0.64477566  0.37394038  0.87491016     0.00200
C974        C  0.67576503  0.34326203  0.89863051    -0.11700
C975        C  0.70206933  0.31034722  0.86920390     0.02400
C976        C  0.69855407  0.30868387  0.81400373     0.00100
C977        C  0.66572061  0.33800766  0.79166957    -0.11600
C978        C  0.64018490  0.37121828  0.82080327     0.02300
H979        H  0.67794551  0.34307623  0.94052147     0.15300
H980        H  0.65835372  0.33466807  0.75143693     0.15300
C981        C  0.61054940  0.40394672  0.79363161     0.36900
C982        C  0.72836030  0.27497468  0.89774960     0.36800
N983        N  0.58739323  0.43070987  0.77169581    -0.43400
N984        N  0.74809008  0.24658255  0.92232375    -0.43400
C985        C  0.80884910  0.31907838  0.69003336     0.00200
C986        C  0.79744774  0.32416318  0.63717942    -0.11700
C987        C  0.81973890  0.35817575  0.60406940     0.02400
C988        C  0.85511367  0.38677773  0.62326306     0.00100
C989        C  0.86522569  0.38406596  0.67564513    -0.11600
C990        C  0.84450675  0.34908287  0.70832722     0.02300
H991        H  0.77246319  0.29952108  0.62085960     0.15300
H992        H  0.89319481  0.40558106  0.68985138     0.15300
C993        C  0.86863351  0.33876505  0.75428056     0.36900
C994        C  0.80753686  0.36044063  0.55027955     0.36800
N995        N  0.89238716  0.33328778  0.78819769    -0.43400
N996        N  0.79742913  0.36256834  0.50727790    -0.43400
O997        O  0.92866940  0.88828799  0.40699192    -0.75000
O998        O  0.87844226  0.93965665  0.44517260    -0.53900
C999        C  0.88965005  0.90170305  0.41652678     0.78800
O1000       O  0.57396445  0.89261315  0.10153799    -0.59600
O1001       O  0.62657016  0.93848397  0.05863258    -0.52600
C1002       C  0.61375555  0.90380171  0.09116133     0.70800
O1003       O  0.92754402  0.90124388  0.10141058    -0.74100
O1004       O  0.87621509  0.94281705  0.05484944    -0.54700
C1005       C  0.88808717  0.91191685  0.09053099     0.76800
O1006       O  0.57309478  0.89333568  0.39590387    -0.59300
O1007       O  0.62652940  0.93497700  0.44115398    -0.52400
C1008       C  0.61297952  0.90306237  0.40616354     0.73400
Zr1009     Zr  0.50177937  0.91714462  0.42542386     2.54700
O1010       O  0.50304386  0.82389560  0.43517053    -0.79800
O1011       O  0.49778027  0.91182593  0.33138196    -0.93200
Zr1012     Zr  0.50218354  0.92128977  0.07632307     2.64700
O1013       O  0.99711932  0.82715344  0.07023581    -0.98200
O1014       O  0.50356023  0.92356835  0.17050339    -0.80300
O1015       O  0.95918188  0.91980360  0.50216846    -0.83600
O1016       O  0.54496725  0.91854975  0.00037381    -2.18300
O1017       O  0.57751775  0.59376253  0.39637498    -0.67000
O1018       O  0.62950454  0.54941344  0.43918874    -0.51600
C1019       C  0.61701101  0.58297917  0.40593514     0.71800
O1020       O  0.93125177  0.59593785  0.10338184    -0.59900
O1021       O  0.87887622  0.55104046  0.05961027    -0.51900
C1022       C  0.89148397  0.58390958  0.09389506     0.73600
O1023       O  0.57610970  0.59362433  0.10237029    -0.71300
O1024       O  0.62859687  0.55217290  0.05781565    -0.50000
C1025       C  0.61592187  0.58422838  0.09279736     0.74900
O1026       O  0.93339021  0.59544090  0.39652821    -0.66600
O1027       O  0.87970903  0.55405278  0.44055396    -0.53800
C1028       C  0.89320681  0.58651706  0.40617474     0.73300
Zr1029     Zr  0.00482919  0.56944675  0.42267338     2.77500
O1030       O  0.00320189  0.66312317  0.41865943    -0.97400
O1031       O  0.00574398  0.56214287  0.32877557    -0.78200
Zr1032     Zr  0.00384844  0.57346803  0.07378476     2.70100
O1033       O  0.50665618  0.66592456  0.05833162    -0.79500
O1034       O  0.00117860  0.58179248  0.16767617    -0.98500
Zr1035     Zr  0.91924705  0.99791311  0.49952741     2.21500
Zr1036     Zr  0.58864640  0.49447640  0.99911248     2.11100
O1037       O  0.54745620  0.57197094  0.99756710    -2.47200
O1038       O  0.96172947  0.57430958  0.49847344    -0.79300
O1039       O  0.54604502  0.49310803  0.42308281    -0.71400
O1040       O  0.96097528  0.99721603  0.07625129    -2.32400
O1041       O  0.96128216  0.99391528  0.42217316    -2.28600
O1042       O  0.54565165  0.49724377  0.07615262    -0.73200
H1043       H  0.56255645  0.88816435  0.00046032     0.78800
H1044       H  0.94289868  0.99782219  0.10677936     0.79900
H1045       H  0.56621650  0.60208071  0.99715171     0.82100
H1046       H  0.94307575  0.99323681  0.39190473     0.79700
H1047       H  0.98932888  0.88724784  0.18000607     0.42700
H1048       H  0.52265357  0.56017660  0.18048741     0.41700
H1049       H  0.97648340  0.67591927  0.05346560     0.41400
H1050       H  0.51426321  0.67573093  0.44765341     0.39300
H1051       H  0.52468671  0.52781961  0.32250835     0.42500
H1052       H  0.97741540  0.93850837  0.32195565     0.37200
H1053       H  0.00916920  0.81077155  0.40124111     0.43400
H1054       H  0.48355693  0.81719847  0.10521760     0.39800
H1055       H  0.02349542  0.67284927  0.39052517     0.44700
H1056       H  0.48992174  0.87542302  0.32402276     0.43400
H1057       H  0.47662609  0.81981719  0.04526649     0.43600
H1058       H  0.01353730  0.61644230  0.17504021     0.43900
C1059       C  0.72899382  0.71501952  0.27586885    -0.02200
C1060       C  0.72735744  0.77575141  0.27891087    -0.02200
C1061       C  0.73145118  0.77940055  0.21805913    -0.02200
C1062       C  0.73259498  0.71849322  0.21560567    -0.02200
C1063       C  0.77951807  0.71775291  0.27995652    -0.02200
C1064       C  0.78338486  0.72115160  0.21919261    -0.02200
C1065       C  0.78196660  0.78157162  0.22328160    -0.02200
C1066       C  0.77749155  0.77850080  0.28395825    -0.02200
C1067       C  0.64902660  0.61422710  0.37677604     0.00200
C1068       C  0.67605467  0.59157517  0.33999056    -0.11700
C1069       C  0.69997135  0.62201894  0.30436162     0.02400
C1070       C  0.69821204  0.67707307  0.30621404     0.00100
C1071       C  0.66702172  0.69736569  0.33997535    -0.11600
C1072       C  0.64518134  0.66786205  0.37673560     0.02300
H1073       H  0.67670548  0.54986807  0.33727483     0.15300
H1074       H  0.65697665  0.73608950  0.33735405     0.15300
C1075       C  0.61870705  0.69406509  0.41441664     0.36900
C1076       C  0.72152078  0.59390828  0.26420667     0.36800
N1077       N  0.59812132  0.71524940  0.44496470    -0.43400
N1078       N  0.73550618  0.56707916  0.23272997    -0.43400
C1079       C  0.70595509  0.81459408  0.17903861     0.00200
C1080       C  0.67951135  0.79188900  0.14047357    -0.11700
C1081       C  0.64927005  0.81990811  0.11228154     0.02400
C1082       C  0.64685747  0.87345439  0.11840833     0.00100
C1083       C  0.67728563  0.89812257  0.14985957    -0.11600
C1084       C  0.70743992  0.86991981  0.17848961     0.02300
H1085       H  0.68263977  0.75246617  0.12981410     0.15000
H1086       H  0.67804118  0.93993778  0.15127301     0.15300
C1087       C  0.74287356  0.90044956  0.19772244     0.36900
C1088       C  0.62178655  0.79287343  0.07590605     0.36800
N1089       N  0.77120124  0.92819396  0.20799185    -0.43400
N1090       N  0.59961154  0.77132096  0.04685688    -0.43400
C1091       C  0.81381292  0.68616591  0.18598804     0.00200
C1092       C  0.81514827  0.63312627  0.19801901    -0.11700
C1093       C  0.83846152  0.59770494  0.16789000     0.02400
C1094       C  0.85872515  0.61411892  0.12191141     0.00100
C1095       C  0.85620394  0.66556660  0.10819045    -0.11600
C1096       C  0.83931569  0.70196735  0.14228935     0.02300
H1097       H  0.80035328  0.61977680  0.23315608     0.15300
H1098       H  0.87480969  0.67856004  0.07472600     0.15300
C1099       C  0.86508546  0.74813549  0.14000594     0.36900
C1100       C  0.84275123  0.54565068  0.18618422     0.36800
N1101       N  0.89088028  0.78051629  0.13518740    -0.43400
N1102       N  0.84737050  0.00451623  0.20014404    -0.43400
C1103       C  0.70301096  0.68225258  0.18345167     0.00200
C1104       C  0.71952744  0.65012563  0.14410491    -0.11700
C1105       C  0.69284924  0.61575631  0.11593826     0.02400
C1106       C  0.64782861  0.61458516  0.12462892     0.00100
C1107       C  0.63134599  0.64703431  0.16332633    -0.11600
C1108       C  0.65762613  0.68086777  0.19145450     0.02300
H1109       H  0.75297087  0.65219700  0.13341900     0.15300
H1110       H  0.59689323  0.64780946  0.17086280     0.15300
C1111       C  0.63520443  0.71755117  0.22329247     0.36900
C1112       C  0.71277399  0.58173103  0.07908730     0.36800
N1113       N  0.61452530  0.74614399  0.24670305    -0.43400
N1114       N  0.72842356  0.54975745  0.55438797    -0.43400
C1115       C  0.79981901  0.81235610  0.32643334     0.00200
C1116       C  0.82671798  0.78894247  0.36340765    -0.11700
C1117       C  0.85427668  0.81738295  0.39547077     0.02400
C1118       C  0.85548749  0.87109083  0.39173941     0.00100
C1119       C  0.82472825  0.89557689  0.36189705    -0.11600
C1120       C  0.79572922  0.86707717  0.33128884     0.02300
H1121       H  0.82648996  0.74856794  0.36958984     0.15300
H1122       H  0.82333466  0.93735681  0.36259466     0.15300
C1123       C  0.75956539  0.89615814  0.31409699     0.36900
C1124       C  0.88087602  0.79058166  0.43218979     0.36800
N1125       N  0.73107068  0.92330093  0.30603521    -0.43400
N1126       N  0.90187895  0.76918236  0.46191873    -0.43400
C1127       C  0.86195605  0.61671655  0.37432287     0.00200
C1128       C  0.87903465  0.64611322  0.33341554    -0.11700
C1129       C  0.85379563  0.67882331  0.30388298     0.02400
C1130       C  0.80848148  0.68140244  0.31186585     0.00100
C1131       C  0.79147554  0.65275070  0.35396171    -0.11600
C1132       C  0.81722532  0.62024267  0.38429226     0.02300
H1133       H  0.91333080  0.64500827  0.32484014     0.15300
H1134       H  0.75865749  0.65783987  0.36617926     0.15300
C1135       C  0.79686543  0.59254404  0.42626348     0.36900
C1136       C  0.87774582  0.71058736  0.26823436     0.36800
N1137       N  0.78042105  0.57014551  0.45976941    -0.43400
N1138       N  0.90106000  0.73306834  0.24123057    -0.43400
C1139       C  0.64458150  0.87462104  0.37436220     0.00200
C1140       C  0.67582488  0.84443302  0.39819320    -0.11700
C1141       C  0.70189094  0.81116699  0.36897778     0.02400
C1142       C  0.69819549  0.80911380  0.31384397     0.00100
C1143       C  0.66525154  0.83807631  0.29134456    -0.11600
C1144       C  0.63952612  0.87114182  0.32032957     0.02300
H1145       H  0.67825289  0.84472920  0.44006817     0.15300
H1146       H  0.65786739  0.83437337  0.25112225     0.15300
C1147       C  0.60878200  0.90228878  0.29303635     0.36900
C1148       C  0.72817541  0.77594643  0.39770967     0.36800
N1149       N  0.58459226  0.92742873  0.27076033    -0.43400
N1150       N  0.74794165  0.74772570  0.42243868    -0.43400
C1151       C  0.80874833  0.81932627  0.19037873     0.00200
C1152       C  0.79743685  0.82471360  0.13753963    -0.11700
C1153       C  0.81978989  0.85885782  0.10459933     0.02400
C1154       C  0.85519923  0.88738591  0.12388259     0.00100
C1155       C  0.86538662  0.88417799  0.17624646    -0.11600
C1156       C  0.84455033  0.84909022  0.20878397     0.02300
H1157       H  0.77246876  0.80015900  0.12106028     0.15300
H1158       H  0.89343178  0.90546945  0.19056223     0.15300
C1159       C  0.86863612  0.83854481  0.25473062     0.36900
C1160       C  0.80773680  0.86103385  0.05077265     0.36800
N1161       N  0.89233396  0.83289689  0.28867869    -0.43400
N1162       N  0.79774821  0.86294921  0.00772266    -0.43400
O1163       O  0.92880961  0.88806951  0.90628670    -0.75000
O1164       O  0.87854740  0.93945319  0.94440448    -0.53900
C1165       C  0.88979945  0.90138832  0.91598796     0.78800
O1166       O  0.57419061  0.89134366  0.60070391    -0.59600
O1167       O  0.62673529  0.93763634  0.55820596    -0.52600
C1168       C  0.61393186  0.90267074  0.59042081     0.70800
O1169       O  0.92787775  0.90168029  0.60243466    -0.74100
O1170       O  0.87658749  0.94378113  0.55626549    -0.54700
C1171       C  0.88845577  0.91266256  0.59174247     0.76800
O1172       O  0.57355788  0.89482126  0.89566858    -0.59300
O1173       O  0.62682763  0.93608513  0.94147501    -0.52400
C1174       C  0.61343278  0.90435416  0.90618955     0.73400
Zr1175     Zr  0.50214505  0.91888773  0.92480833     2.54700
O1176       O  0.50357766  0.82541673  0.93181498    -0.79800
O1177       O  0.49919292  0.91726930  0.83061163    -0.93200
Zr1178     Zr  0.50261509  0.92124185  0.57689146     2.64700
O1179       O  0.99808108  0.82794476  0.58013199    -0.98200
O1180       O  0.50567207  0.93012328  0.67061639    -0.80300
O1181       O  0.95890797  0.91967445  0.00039053    -0.83600
O1182       O  0.54499721  0.91763002  0.50065381    -2.18300
O1183       O  0.57767131  0.59419345  0.89666695    -0.67000
O1184       O  0.62962231  0.54914826  0.93880099    -0.51600
C1185       C  0.61717505  0.58324876  0.90609638     0.71800
O1186       O  0.93105360  0.59488622  0.60414603    -0.59900
O1187       O  0.87873536  0.55112213  0.55914618    -0.51900
C1188       C  0.89130486  0.58348359  0.59393618     0.73600
O1189       O  0.57587496  0.59423549  0.60302638    -0.71300
O1190       O  0.62838069  0.55262769  0.55865451    -0.50000
C1191       C  0.61568842  0.58469893  0.59356353     0.74900
O1192       O  0.93336325  0.59515228  0.89615134    -0.66600
O1193       O  0.87969395  0.55491398  0.94114529    -0.53800
C1194       C  0.89322580  0.58685628  0.90631111     0.73300
Zr1195     Zr  0.00482603  0.56942554  0.92173960     2.77500
O1196       O  0.00223441  0.66294104  0.91520295    -0.97400
O1197       O  0.00543022  0.56206967  0.82783927    -0.78200
Zr1198     Zr  0.00365026  0.57233183  0.57479079     2.70100
O1199       O  0.50634098  0.66691619  0.56351111    -0.79500
O1200       O  0.00203440  0.57993631  0.66880414    -0.98500
Zr1201     Zr  0.91898185  0.99771740  0.99881812     2.21500
Zr1202     Zr  0.58859014  0.49502349  0.49994346     2.11100
O1203       O  0.54721929  0.57251110  0.49826362    -2.47200
O1204       O  0.96180963  0.57484376  0.99759368    -0.79300
O1205       O  0.54589110  0.49263156  0.92226344    -0.71400
O1206       O  0.96125619  0.99791196  0.57703041    -2.32400
O1207       O  0.96108658  0.99439020  0.92126867    -2.28600
O1208       O  0.54538472  0.49772402  0.57682389    -0.73200
H1209       H  0.56254229  0.88720960  0.50082232     0.78800
H1210       H  0.94318783  0.99863069  0.60755794     0.79900
H1211       H  0.56592745  0.60267120  0.49778617     0.82100
H1212       H  0.94291005  0.99370766  0.89097199     0.79700
H1213       H  0.99751758  0.89344116  0.68424211     0.42700
H1214       H  0.52281188  0.55568082  0.68043778     0.41700
H1215       H  0.98100188  0.67844512  0.58126833     0.41400
H1216       H  0.51684446  0.67450439  0.94941944     0.39300
H1217       H  0.50953185  0.52598087  0.82007444     0.42500
H1218       H  0.97128540  0.93016365  0.82121550     0.37200
H1219       H  0.99177788  0.81094500  0.90128646     0.43400
H1220       H  0.48135453  0.81936739  0.61129573     0.39800
H1221       H  0.02373143  0.67244747  0.88829870     0.44700
H1222       H  0.48910094  0.88195429  0.82180067     0.43400
H1223       H  0.48148401  0.81703399  0.55066877     0.43600
H1224       H  0.01236306  0.61551014  0.67608380     0.43900
C1225       C  0.72924584  0.71510727  0.77597901    -0.02200
C1226       C  0.72746245  0.77587559  0.77882583    -0.02200
C1227       C  0.73162474  0.77929410  0.71795398    -0.02200
C1228       C  0.73286449  0.71839702  0.71572909    -0.02200
C1229       C  0.77975741  0.71789971  0.77995363    -0.02200
C1230       C  0.78362774  0.72114570  0.71922586    -0.02200
C1231       C  0.78213724  0.78156445  0.72321442    -0.02200
C1232       C  0.77758749  0.77863220  0.78387388    -0.02200
C1233       C  0.64931868  0.61455149  0.87718875     0.00200
C1234       C  0.67638402  0.59180490  0.84048807    -0.11700
C1235       C  0.70017927  0.62212453  0.80464334     0.02400
C1236       C  0.69857574  0.67718868  0.80649638     0.00100
C1237       C  0.66762694  0.69760524  0.84044131    -0.11600
C1238       C  0.64558605  0.66821211  0.87709197     0.02300
H1239       H  0.67694943  0.55009192  0.83780362     0.15300
H1240       H  0.65774260  0.73637001  0.83783163     0.15300
C1241       C  0.61859750  0.69465465  0.91404003     0.36900
C1242       C  0.72123069  0.59392591  0.76415879     0.36800
N1243       N  0.59751970  0.71642980  0.94364748    -0.43400
N1244       N  0.73478761  0.56715046  0.73235910    -0.43400
C1245       C  0.70605834  0.81408895  0.67869613     0.00200
C1246       C  0.67955942  0.79107522  0.64032432    -0.11700
C1247       C  0.64896108  0.81876047  0.61239826     0.02400
C1248       C  0.64696376  0.87241007  0.61769549     0.00100
C1249       C  0.67750632  0.89733020  0.64875443    -0.11600
C1250       C  0.70750980  0.86938741  0.67778771     0.02300
H1251       H  0.68277909  0.75167572  0.62968813     0.15000
H1252       H  0.67830818  0.93915616  0.64977129     0.15300
C1253       C  0.74270934  0.90014797  0.69727093     0.36900
C1254       C  0.62029304  0.79120516  0.57768757     0.36800
N1255       N  0.77091569  0.92805922  0.70758052    -0.43400
N1256       N  0.59694263  0.76930399  0.55023089    -0.43400
C1257       C  0.81396639  0.68602520  0.68601674     0.00200
C1258       C  0.81532938  0.63298227  0.69819354    -0.11700
C1259       C  0.83854200  0.59750410  0.66800156     0.02400
C1260       C  0.85857752  0.61378106  0.62185587     0.00100
C1261       C  0.85601870  0.66517788  0.60798903    -0.11600
C1262       C  0.83923043  0.70168395  0.64205536     0.02300
H1263       H  0.80041445  0.61960214  0.73328344     0.15300
H1264       H  0.87448887  0.67805475  0.57437378     0.15300
C1265       C  0.86470696  0.74804697  0.63921041     0.36900
C1266       C  0.84291409  0.54543872  0.68622567     0.36800
N1267       N  0.89027987  0.78060225  0.63391747    -0.43400
N1268       N  0.84937949  0.00515182  0.70297727    -0.43400
C1269       C  0.70320940  0.68212502  0.68388562     0.00200
C1270       C  0.71959623  0.64939657  0.64498839    -0.11700
C1271       C  0.69276825  0.61489435  0.61727338     0.02400
C1272       C  0.64766579  0.61486326  0.62534582     0.00100
C1273       C  0.63129889  0.64799734  0.66350352    -0.11600
C1274       C  0.65783180  0.68130709  0.69184567     0.02300
H1275       H  0.75307527  0.65082584  0.63448449     0.15300
H1276       H  0.59681322  0.64951996  0.67062625     0.15300
C1277       C  0.63577059  0.71803968  0.72399300     0.36900
C1278       C  0.71269574  0.57928091  0.58192784     0.36800
N1279       N  0.61548746  0.74667721  0.74784368    -0.43400
N1280       N  0.72838321  0.55345106  0.05017245    -0.43400
C1281       C  0.79974021  0.81237685  0.82646266     0.00200
C1282       C  0.82656512  0.78881181  0.86339055    -0.11700
C1283       C  0.85453453  0.81702576  0.89503831     0.02400
C1284       C  0.85559935  0.87074036  0.89157051     0.00100
C1285       C  0.82454246  0.89536675  0.86231660    -0.11600
C1286       C  0.79563765  0.86707300  0.83148305     0.02300
H1287       H  0.82611481  0.74849174  0.86975051     0.15300
H1288       H  0.82307095  0.93713967  0.86332934     0.15300
C1289       C  0.75973705  0.89642388  0.81393764     0.36900
C1290       C  0.88200180  0.78985379  0.93053875     0.36800
N1291       N  0.73147215  0.92383754  0.80564282    -0.43400
N1292       N  0.90375489  0.76789171  0.95903766    -0.43400
C1293       C  0.86215687  0.61725715  0.87450848     0.00200
C1294       C  0.87943316  0.64715209  0.83404710    -0.11700
C1295       C  0.85416811  0.67937932  0.80403310     0.02400
C1296       C  0.80879885  0.68165941  0.81177308     0.00100
C1297       C  0.79172021  0.65284037  0.85367079    -0.11600
C1298       C  0.81732849  0.62012713  0.88381304     0.02300
H1299       H  0.91381658  0.64651188  0.82591115     0.15300
H1300       H  0.75889408  0.65776009  0.86582770     0.15300
C1301       C  0.79651636  0.59084324  0.92432950     0.36900
C1302       C  0.87807828  0.71059850  0.76783897     0.36800
N1303       N  0.77959722  0.56690576  0.95639216    -0.43400
N1304       N  0.90130901  0.73251592  0.74026423    -0.43400
C1305       C  0.64513400  0.87586376  0.87432112     0.00200
C1306       C  0.67635028  0.84555231  0.89807456    -0.11700
C1307       C  0.70213595  0.81190462  0.86885773     0.02400
C1308       C  0.69837192  0.80963783  0.81371654     0.00100
C1309       C  0.66560988  0.83896196  0.79123533    -0.11600
C1310       C  0.64004370  0.87227967  0.82026858     0.02300
H1311       H  0.67887853  0.84592767  0.93993692     0.15300
H1312       H  0.65824717  0.83535386  0.75099248     0.15300
C1313       C  0.60938421  0.90360845  0.79305138     0.36900
C1314       C  0.72811363  0.77638441  0.89761568     0.36800
N1315       N  0.58520877  0.92896447  0.77100452    -0.43400
N1316       N  0.74759821  0.74778898  0.92223073    -0.43400
C1317       C  0.80904595  0.81942844  0.69064369     0.00200
C1318       C  0.79774710  0.82538681  0.63787491    -0.11700
C1319       C  0.82005082  0.85996332  0.60537989     0.02400
C1320       C  0.85556664  0.88806347  0.62493844     0.00100
C1321       C  0.86584801  0.88419632  0.67721640    -0.11600
C1322       C  0.84491791  0.84886292  0.70936860     0.02300
H1323       H  0.77275800  0.80107258  0.62110800     0.15300
H1324       H  0.89398743  0.90518475  0.69171426     0.15300
C1325       C  0.86894365  0.83778605  0.75522289     0.36900
C1326       C  0.80778458  0.86314079  0.55168210     0.36800
N1327       N  0.89261440  0.83172543  0.78911699    -0.43400
N1328       N  0.79764296  0.86597078  0.50874241    -0.43400
loop_ 
_geom_bond_atom_site_label_1 
_geom_bond_atom_site_label_2 
_geom_bond_distance 
_geom_bond_site_symmetry_2 
_ccdc_geom_bond_type 
O1            C3   1.286       .  A
O1         Zr677   2.429       .  S
O2            C3   1.283       .  A
O2          Zr39   2.407       .  S
C3          C122   1.462       .  S
O4            C6   1.289       .  A
O4          Zr16   2.446       .  S
O5            C6   1.290       .  A
O5         Zr372   2.444   1_554  S
C6           C86   1.484       .  S
O7            C9   1.290       .  A
O7         Zr680   2.436       .  S
O8            C9   1.282       .  A
O8         Zr205   2.410   1_554  S
C9          C158   1.470       .  S
O10          C12   1.285       .  A
O10         Zr13   2.426       .  S
O11          C12   1.292       .  A
O11        Zr538   2.458       .  S
C12         C143   1.485       .  S
Zr13        O665   2.425   1_455  S
Zr13         O14   2.435       .  S
Zr13         O15   2.436   1_455  S
Zr13        O683   2.364   1_455  S
Zr13        O186   2.364       .  S
Zr13        O375   2.367       .  S
Zr13        O709   2.371   1_455  S
O14         H721   0.990       .  S
O15          H60   0.990       .  S
O15         H720   0.990       .  S
Zr16        O671   2.438   1_455  S
Zr16         O18   2.435       .  S
Zr16        O681   2.435   1_455  S
Zr16         O20   2.365       .  S
Zr16        O849   2.367   1_455  S
Zr16        O708   2.369   1_455  S
Zr16        O378   2.366       .  S
O17        Zr680   2.436       .  S
O17         H722   0.990       .  S
O17         H725   0.990       .  S
O18         H715   0.990   1_455  S
O19         Zr39   2.392       .  S
O19        Zr677   2.362       .  S
O19        Zr846   2.366       .  S
O20        Zr179   2.364   1_554  S
O20        Zr372   2.390   1_554  S
O20          H47   0.966       .  S
O21          C23   1.284       .  A
O21        Zr697   2.416       .  S
O22          C23   1.290       .  A
O22        Zr206   2.453   1_545  S
C23          C71   1.477       .  S
O24          C26   1.289       .  A
O24         Zr36   2.448       .  S
O25          C26   1.285       .  A
O25        Zr537   2.432   1_544  S
C26          C98   1.476       .  S
O27          C29   1.285       .  A
O27        Zr700   2.417       .  S
O28          C29   1.291       .  A
O28         Zr40   2.451   1_544  S
C29         C110   1.501       .  S
O30          C32   1.286       .  A
O30         Zr33   2.421       .  S
O31          C32   1.289       .  A
O31        Zr371   2.450   1_545  S
C32         C131   1.503       .  S
Zr33        O685   2.424       .  S
Zr33         O34   2.437       .  S
Zr33         O35   2.435       .  S
Zr33         O42   2.371       .  S
Zr33        O871   2.371       .  S
Zr33        O377   2.367   1_545  S
Zr33        O707   2.365   1_545  S
O34          H59   0.990       .  S
O34         H718   0.989       .  S
O35         H719   0.990       .  S
Zr36        O691   2.413       .  S
Zr36         O38   2.438       .  S
Zr36        O701   2.436       .  S
Zr36        O208   2.364   1_554  S
Zr36        O705   2.373   1_554  S
Zr36        O710   2.379   1_545  S
Zr36        O376   2.356   1_545  S
O37        Zr700   2.436       .  S
O37         H717   0.990       .  S
O38          H62   0.990       .  S
O38         H716   0.990       .  S
Zr39        O174   2.410       .  S
Zr39        O523   2.433       .  S
Zr39        O363   2.451       .  S
Zr39         O45   2.387       .  S
Zr39        O374   2.380       .  S
Zr39        O210   2.391       .  S
Zr40        O337   2.445   1_556  S
Zr40        O509   2.456       .  S
Zr40        O188   2.449   1_565  S
Zr40         O41   2.401   1_565  S
Zr40         O46   2.394   1_556  S
Zr40        O352   2.390   1_556  S
Zr40        O209   2.390       .  S
O41        Zr863   2.370       .  S
O41        Zr700   2.373   1_556  S
O41          H49   0.967       .  S
O42        Zr202   2.364       .  S
O42        Zr371   2.378   1_545  S
O43        Zr345   2.370       .  S
O43        Zr697   2.366   1_565  S
O43        Zr206   2.387       .  S
O44        Zr680   2.369       .  S
O44        Zr368   2.353       .  S
O44        Zr205   2.390   1_554  S
O44          H48   0.966       .  S
O45        Zr677   2.372       .  S
O45        Zr365   2.361       .  S
O45          H50   0.966       .  S
O46        Zr348   2.369       .  S
O46        Zr700   2.378   1_565  S
H51         O682   0.990       .  S
H52         O702   0.990       .  S
H53         O701   0.990       .  S
H54         O698   0.990       .  S
H55         O699   0.990       .  S
H56         O679   0.990       .  S
H57         O678   0.990       .  S
H58         O681   0.990       .  S
H61         O681   0.990       .  S
C63          C64   1.580       .  S
C63          C66   1.564       .  S
C63          C67   1.569       .  S
C63          C74   1.569       .  S
C64          C65   1.582       .  S
C64          C70   1.559       .  S
C64         C146   1.550       .  S
C65          C66   1.584       .  S
C65          C69   1.572       .  S
C65          C83   1.586       .  S
C66          C68   1.576       .  S
C66         C107   1.547       .  S
C67          C68   1.577       .  S
C67          C70   1.582       .  S
C67         C134   1.553       .  S
C68          C69   1.574       .  S
C68          C95   1.570       .  S
C69          C70   1.576       .  S
C69         C155   1.532       .  S
C70         C119   1.562       .  S
C71          C72   1.400       .  A
C71          C76   1.399       .  A
C72          C73   1.415       .  A
C72          H77   1.085       .  S
C73          C74   1.431       .  A
C73          C80   1.436       .  S
C74          C75   1.406       .  A
C75          C76   1.388       .  A
C75          H78   1.059       .  S
C76          C79   1.446       .  S
C79          N81   1.156       .  T
C80          N82   1.157       .  T
C83          C84   1.415       .  A
C83          C88   1.436       .  A
C84          C85   1.403       .  A
C84          H89   1.065       .  S
C85          C86   1.402       .  A
C85          C92   1.444       .  S
C86          C87   1.393       .  A
C87          C88   1.409       .  A
C87          H90   1.086       .  S
C88          C91   1.432       .  S
C91          N93   1.157       .  T
C92          N94   1.157       .  T
C95          C96   1.414       .  A
C95         C100   1.433       .  A
C96          C97   1.409       .  A
C96         H101   1.072       .  S
C97          C98   1.404       .  A
C97         C104   1.441       .  S
C98          C99   1.386       .  A
C99         C100   1.397       .  A
C99         H102   1.089       .  S
C100        C103   1.430       .  S
C103        N105   1.157       .  T
C104        N438   1.156       .  T
N106        C436   1.157       .  T
C107        C108   1.414       .  A
C107        C112   1.419       .  A
C108        C109   1.410       .  A
C108        H113   1.072       .  S
C109        C110   1.412       .  A
C109        C116   1.442       .  S
C110        C111   1.406       .  A
C111        C112   1.393       .  A
C111        H114   1.084       .  S
C112        C115   1.442       .  S
C115        N117   1.156       .  T
C116        N284   1.157       .  T
N118        C282   1.157       .  T
C119        C120   1.415       .  A
C119        C124   1.433       .  A
C120        C121   1.393       .  A
C120        H125   1.060       .  S
C121        C122   1.398       .  A
C121        C128   1.446       .  S
C122        C123   1.391       .  A
C123        C124   1.400       .  A
C123        H126   1.086       .  S
C124        C127   1.433       .  S
C127        N129   1.158       .  T
C128        N130   1.157       .  T
C131        C132   1.402       .  A
C131        C136   1.412       .  A
C132        C133   1.394       .  A
C132        H137   1.085       .  S
C133        C134   1.421       .  A
C133        C140   1.435       .  S
C134        C135   1.415       .  A
C135        C136   1.411       .  A
C135        H138   1.073       .  S
C136        C139   1.441       .  S
C139        N141   1.156       .  T
C140        N142   1.155       .  T
C143        C144   1.401       .  A
C143        C148   1.409       .  A
C144        C145   1.410       .  A
C144        H149   1.085       .  S
C145        C146   1.432       .  A
C145        C152   1.443       .  S
C146        C147   1.404       .  A
C147        C148   1.396       .  A
C147        H150   1.069       .  S
C148        C151   1.445       .  S
C151        N153   1.157       .  T
C152        N154   1.157       .  T
C155        C156   1.418       .  A
C155        C160   1.424       .  A
C156        C157   1.403       .  A
C156        H161   1.082       .  S
C157        C158   1.406       .  A
C157        C164   1.443       .  S
C158        C159   1.393       .  A
C159        C160   1.391       .  A
C159        H162   1.088       .  S
C160        C163   1.433       .  S
C163        N165   1.157       .  T
C164        N166   1.157       .  T
O167        C169   1.286       .  A
O167       Zr843   2.428       .  S
O168        C169   1.282       .  A
O168       Zr205   2.406       .  S
C169        C288   1.460       .  S
O170        C172   1.288       .  A
O170       Zr182   2.446       .  S
O171        C172   1.290       .  A
O171       Zr538   2.442       .  S
C172        C252   1.482       .  S
O173        C175   1.290       .  A
O173       Zr846   2.438       .  S
O174        C175   1.282       .  A
C175        C324   1.470       .  S
O176        C178   1.285       .  A
O176       Zr179   2.425       .  S
O177        C178   1.293       .  A
O177       Zr372   2.458       .  S
C178        C309   1.485       .  S
Zr179       O831   2.427   1_455  S
Zr179       O180   2.435       .  S
Zr179       O181   2.438   1_455  S
Zr179       O849   2.363   1_456  S
Zr179       O541   2.369       .  S
Zr179       O875   2.371   1_455  S
O180        H887   0.990       .  S
O181        H886   0.990       .  S
O181        H226   0.990   1_655  S
Zr182       O837   2.438   1_455  S
Zr182       O847   2.436   1_455  S
Zr182       O184   2.436       .  S
Zr182       O186   2.366       .  S
Zr182       O683   2.367   1_455  S
Zr182       O874   2.368   1_455  S
Zr182       O544   2.367       .  S
O183       Zr846   2.435       .  S
O183        H888   0.990       .  S
O183        H891   0.990       .  S
O184        H881   0.990       .  S
O185       Zr843   2.363   1_554  S
O185       Zr680   2.367       .  S
O185       Zr205   2.393   1_554  S
O186       Zr538   2.393       .  S
O186        H213   0.966       .  S
O187        C189   1.284       .  A
O187       Zr863   2.418       .  S
O188        C189   1.290       .  A
C189        C237   1.476       .  S
O190        C192   1.290       .  A
O190       Zr202   2.449       .  S
O191        C192   1.286       .  A
O191       Zr371   2.435   1_545  S
C192        C264   1.478       .  S
O193        C195   1.285       .  A
O193       Zr866   2.420       .  S
O194        C195   1.290       .  A
O194       Zr206   2.446   1_545  S
C195        C276   1.500       .  S
O196        C198   1.285       .  A
O196       Zr199   2.418       .  S
O197        C198   1.289       .  A
O197       Zr537   2.448   1_545  S
C198        C297   1.501       .  S
Zr199       O851   2.416       .  S
Zr199       O200   2.437       .  S
Zr199       O201   2.434       .  S
Zr199       O705   2.371       .  S
Zr199       O208   2.371       .  S
Zr199       O543   2.362   1_545  S
Zr199       O873   2.365   1_545  S
O200        H884   0.989       .  S
O200        H225   0.990       .  S
O201        H885   0.990       .  S
Zr202       O857   2.414       .  S
Zr202       O867   2.435       .  S
Zr202       O204   2.437       .  S
Zr202       O871   2.376       .  S
Zr202       O876   2.378   1_545  S
Zr202       O542   2.354   1_545  S
O203       Zr866   2.436       .  S
O203        H883   0.990       .  S
O204        H882   0.990       .  S
O204        H228   0.990       .  S
Zr205       O357   2.435   1_556  S
Zr205       O529   2.450       .  S
Zr205       O540   2.378       .  S
Zr205       O211   2.390       .  S
Zr206       O503   2.444       .  S
Zr206       O343   2.455       .  S
Zr206       O518   2.392       .  S
Zr206       O207   2.402   1_565  S
Zr206       O212   2.397       .  S
O207       Zr697   2.370       .  S
O207       Zr866   2.373       .  S
O207        H215   0.967       .  S
O208       Zr537   2.380   1_545  S
O209       Zr511   2.369       .  S
O209       Zr863   2.367   1_565  S
O210       Zr846   2.368       .  S
O210       Zr534   2.354       .  S
O210        H214   0.966       .  S
O211       Zr843   2.371       .  S
O211       Zr531   2.364       .  S
O211        H216   0.966       .  S
O212       Zr514   2.367       .  S
O212       Zr866   2.379   1_565  S
H217        O848   0.990       .  S
H218        O868   0.990       .  S
H219        O867   0.990       .  S
H220        O864   0.989       .  S
H221        O865   0.990       .  S
H222        O845   0.990       .  S
H223        O844   0.990       .  S
H224        O847   0.990       .  S
H227        O847   0.990       .  S
C229        C230   1.580       .  S
C229        C232   1.564       .  S
C229        C233   1.568       .  S
C229        C240   1.569       .  S
C230        C231   1.580       .  S
C230        C236   1.559       .  S
C230        C312   1.551       .  S
C231        C232   1.583       .  S
C231        C235   1.570       .  S
C231        C249   1.582       .  S
C232        C234   1.575       .  S
C232        C273   1.545       .  S
C233        C234   1.576       .  S
C233        C236   1.582       .  S
C233        C300   1.551       .  S
C234        C235   1.573       .  S
C234        C261   1.571       .  S
C235        C236   1.576       .  S
C235        C321   1.530       .  S
C236        C285   1.560       .  S
C237        C238   1.399       .  A
C237        C242   1.398       .  A
C238        C239   1.415       .  A
C238        H243   1.085       .  S
C239        C240   1.432       .  A
C239        C246   1.436       .  S
C240        C241   1.407       .  A
C241        C242   1.388       .  A
C241        H244   1.058       .  S
C242        C245   1.446       .  S
C245        N247   1.156       .  T
C246        N248   1.157       .  T
C249        C250   1.413       .  A
C249        C254   1.436       .  A
C250        C251   1.401       .  A
C250        H255   1.065       .  S
C251        C252   1.402       .  A
C251        C258   1.443       .  S
C252        C253   1.393       .  A
C253        C254   1.408       .  A
C253        H256   1.086       .  S
C254        C257   1.433       .  S
C257        N259   1.157       .  T
C258        N260   1.156       .  T
C261        C262   1.414       .  A
C261        C266   1.432       .  A
C262        C263   1.409       .  A
C262        H267   1.072       .  S
C263        C264   1.406       .  A
C263        C270   1.441       .  S
C264        C265   1.387       .  A
C265        C266   1.398       .  A
C265        H268   1.089       .  S
C266        C269   1.430       .  S
C269        N271   1.157       .  T
C270        N604   1.157       .  T
N272        C602   1.157       .  T
C273        C274   1.414       .  A
C273        C278   1.419       .  A
C274        C275   1.409       .  A
C274        H279   1.071       .  S
C275        C276   1.412       .  A
C275        C282   1.443       .  S
C276        C277   1.405       .  A
C277        C278   1.392       .  A
C277        H280   1.084       .  S
C278        C281   1.442       .  S
C281        N283   1.156       .  T
C285        C286   1.414       .  A
C285        C290   1.433       .  A
C286        C287   1.392       .  A
C286        H291   1.059       .  S
C287        C288   1.397       .  A
C287        C294   1.446       .  S
C288        C289   1.391       .  A
C289        C290   1.400       .  A
C289        H292   1.086       .  S
C290        C293   1.433       .  S
C293        N295   1.158       .  T
C294        N296   1.157       .  T
C297        C298   1.402       .  A
C297        C302   1.411       .  A
C298        C299   1.393       .  A
C298        H303   1.085       .  S
C299        C300   1.421       .  A
C299        C306   1.435       .  S
C300        C301   1.415       .  A
C301        C302   1.410       .  A
C301        H304   1.073       .  S
C302        C305   1.440       .  S
C305        N307   1.156       .  T
C306        N308   1.155       .  T
C309        C310   1.401       .  A
C309        C314   1.409       .  A
C310        C311   1.409       .  A
C310        H315   1.085       .  S
C311        C312   1.431       .  A
C311        C318   1.443       .  S
C312        C313   1.406       .  A
C313        C314   1.397       .  A
C313        H316   1.069       .  S
C314        C317   1.445       .  S
C317        N319   1.157       .  T
C318        N320   1.157       .  T
C321        C322   1.418       .  A
C321        C326   1.423       .  A
C322        C323   1.403       .  A
C322        H327   1.082       .  S
C323        C324   1.406       .  A
C323        C330   1.443       .  S
C324        C325   1.394       .  A
C325        C326   1.391       .  A
C325        H328   1.087       .  S
C326        C329   1.434       .  S
C329        N331   1.157       .  T
C330        N332   1.157       .  T
O333        C335   1.286       .  A
O333      Zr1009   2.428       .  S
O334        C335   1.282       .  A
O334       Zr371   2.404       .  S
C335        C454   1.461       .  S
O336        C338   1.288       .  A
O336       Zr348   2.443       .  S
O337        C338   1.291       .  A
C338        C418   1.483       .  S
O339        C341   1.291       .  A
O339      Zr1012   2.440       .  S
O340        C341   1.282       .  A
O340       Zr537   2.410   1_554  S
C341        C490   1.471       .  S
O342        C344   1.286       .  A
O342       Zr345   2.427       .  S
O343        C344   1.292       .  A
C344        C475   1.484       .  S
Zr345       O997   2.429   1_455  S
Zr345       O346   2.435       .  S
Zr345       O347   2.436   1_455  S
Zr345      O1015   2.363   1_455  S
Zr345       O518   2.364       .  S
Zr345      O1041   2.370   1_455  S
O346       H1053   0.990       .  S
O347       H1052   0.990       .  S
O347        H392   0.990       .  S
Zr348      O1003   2.435   1_455  S
Zr348      O1013   2.436   1_455  S
Zr348       O350   2.435       .  S
Zr348       O352   2.364       .  S
Zr348      O1181   2.364   1_455  S
Zr348      O1040   2.370   1_455  S
O349      Zr1012   2.436       .  S
O349       H1054   0.990       .  S
O349       H1057   0.990       .  S
O350       H1047   0.990   1_455  S
O351      Zr1009   2.360       .  S
O351      Zr1178   2.367       .  S
O351       Zr371   2.393       .  S
O352       Zr511   2.363   1_554  S
O352        H379   0.966       .  S
O353        C355   1.284       .  A
O353      Zr1029   2.419       .  S
O354        C355   1.291       .  A
O354       Zr538   2.453       .  S
C355        C403   1.479       .  S
O356        C358   1.289       .  A
O356       Zr368   2.447       .  S
O357        C358   1.286       .  A
C358        C430   1.478       .  S
O359        C361   1.285       .  A
O359      Zr1032   2.418       .  S
O360        C361   1.291       .  A
O360       Zr372   2.451   1_554  S
C361        C442   1.501       .  S
O362        C364   1.285       .  A
O362       Zr365   2.420       .  S
O363        C364   1.290       .  A
C364        C463   1.502       .  S
Zr365      O1017   2.417       .  S
Zr365       O366   2.438       .  S
Zr365       O367   2.434       .  S
Zr365      O1203   2.372       .  S
Zr365       O374   2.371       .  S
Zr365      O1039   2.365       .  S
O366       H1050   0.990       .  S
O366        H391   0.990       .  S
O367       H1051   0.990       .  S
Zr368      O1023   2.412       .  S
Zr368      O1033   2.436       .  S
Zr368       O370   2.437       .  S
Zr368       O540   2.363   1_554  S
Zr368      O1037   2.371   1_554  S
Zr368      O1042   2.379       .  S
O369      Zr1032   2.436       .  S
O369       H1049   0.990   1_455  S
O370       H1048   0.990       .  S
O370        H394   0.990       .  S
Zr371       O506   2.408       .  S
Zr371       O542   2.390       .  S
Zr371       O377   2.389       .  S
Zr372       O520   2.445       .  S
Zr372       O373   2.403       .  S
Zr372       O541   2.390       .  S
Zr372       O378   2.393   1_556  S
O373      Zr1195   2.371       .  S
O373      Zr1032   2.374   1_556  S
O373        H381   0.967       .  S
O374       Zr534   2.366       .  S
O375      Zr1029   2.367       .  S
O375       Zr538   2.388       .  S
O376      Zr1012   2.370       .  S
O376       Zr537   2.392   1_554  S
O376        H380   0.966       .  S
O377      Zr1009   2.371       .  S
O377        H382   0.966       .  S
O378      Zr1032   2.379       .  S
H383       O1014   0.990       .  S
H384       O1034   0.990       .  S
H385       O1033   0.990       .  S
H386       O1030   0.989       .  S
H387       O1031   0.990       .  S
H388       O1011   0.990       .  S
H389       O1010   0.990       .  S
H390       O1013   0.990       .  S
H393       O1013   0.990       .  S
C395        C396   1.581       .  S
C395        C398   1.564       .  S
C395        C399   1.569       .  S
C395        C406   1.572       .  S
C396        C397   1.581       .  S
C396        C402   1.560       .  S
C396        C478   1.552       .  S
C397        C398   1.584       .  S
C397        C401   1.572       .  S
C397        C415   1.584       .  S
C398        C400   1.576       .  S
C398        C439   1.545       .  S
C399        C400   1.576       .  S
C399        C402   1.582       .  S
C399        C466   1.551       .  S
C400        C401   1.574       .  S
C400        C427   1.571       .  S
C401        C402   1.577       .  S
C401        C487   1.532       .  S
C402        C451   1.562       .  S
C403        C404   1.400       .  A
C403        C408   1.399       .  A
C404        C405   1.416       .  A
C404        H409   1.085       .  S
C405        C406   1.432       .  A
C405        C412   1.436       .  S
C406        C407   1.407       .  A
C407        C408   1.389       .  A
C407        H410   1.058       .  S
C408        C411   1.446       .  S
C411        N413   1.157       .  T
C412        N414   1.157       .  T
C415        C416   1.414       .  A
C415        C420   1.436       .  A
C416        C417   1.402       .  A
C416        H421   1.064       .  S
C417        C418   1.402       .  A
C417        C424   1.444       .  S
C418        C419   1.394       .  A
C419        C420   1.409       .  A
C419        H422   1.086       .  S
C420        C423   1.433       .  S
C423        N425   1.157       .  T
C424        N426   1.157       .  T
C427        C428   1.414       .  A
C427        C432   1.433       .  A
C428        C429   1.410       .  A
C428        H433   1.072       .  S
C429        C430   1.405       .  A
C429        C436   1.441       .  S
C430        C431   1.386       .  A
C431        C432   1.397       .  A
C431        H434   1.089       .  S
C432        C435   1.430       .  S
C435        N437   1.157       .  T
C439        C440   1.413       .  A
C439        C444   1.420       .  A
C440        C441   1.409       .  A
C440        H445   1.072       .  S
C441        C442   1.412       .  A
C441        C448   1.441       .  S
C442        C443   1.405       .  A
C443        C444   1.393       .  A
C443        H446   1.084       .  S
C444        C447   1.442       .  S
C447        N449   1.156       .  T
C448        N616   1.156       .  T
N450        C614   1.156       .  T
C451        C452   1.416       .  A
C451        C456   1.433       .  A
C452        C453   1.393       .  A
C452        H457   1.059       .  S
C453        C454   1.397       .  A
C453        C460   1.446       .  S
C454        C455   1.390       .  A
C455        C456   1.400       .  A
C455        H458   1.086       .  S
C456        C459   1.433       .  S
C459        N461   1.158       .  T
C460        N462   1.157       .  T
C463        C464   1.403       .  A
C463        C468   1.412       .  A
C464        C465   1.394       .  A
C464        H469   1.085       .  S
C465        C466   1.421       .  A
C465        C472   1.435       .  S
C466        C467   1.413       .  A
C467        C468   1.409       .  A
C467        H470   1.073       .  S
C468        C471   1.440       .  S
C471        N473   1.156       .  T
C472        N474   1.155       .  T
C475        C476   1.400       .  A
C475        C480   1.408       .  A
C476        C477   1.409       .  A
C476        H481   1.085       .  S
C477        C478   1.431       .  A
C477        C484   1.443       .  S
C478        C479   1.407       .  A
C479        C480   1.397       .  A
C479        H482   1.069       .  S
C480        C483   1.446       .  S
C483        N485   1.157       .  T
C484        N486   1.157       .  T
C487        C488   1.419       .  A
C487        C492   1.424       .  A
C488        C489   1.404       .  A
C488        H493   1.082       .  S
C489        C490   1.406       .  A
C489        C496   1.443       .  S
C490        C491   1.394       .  A
C491        C492   1.391       .  A
C491        H494   1.088       .  S
C492        C495   1.433       .  S
C495        N497   1.157       .  T
C496        N498   1.157       .  T
O499        C501   1.285       .  A
O499      Zr1175   2.425       .  S
O500        C501   1.283       .  A
O500       Zr537   2.408       .  S
C501        C620   1.460       .  S
O502        C504   1.288       .  A
O502       Zr514   2.443       .  S
O503        C504   1.290       .  A
C504        C584   1.481       .  S
O505        C507   1.290       .  A
O505      Zr1178   2.438       .  S
O506        C507   1.282       .  A
C507        C656   1.469       .  S
O508        C510   1.286       .  A
O508       Zr511   2.426       .  S
O509        C510   1.292       .  A
C510        C641   1.484       .  S
Zr511      O1163   2.428   1_455  S
Zr511       O512   2.435       .  S
Zr511       O513   2.437   1_455  S
Zr511      O1181   2.362   1_456  S
Zr511      O1207   2.371   1_455  S
O512       H1219   0.990   1_455  S
O513       H1218   0.990       .  S
O513        H558   0.990       .  S
Zr514      O1169   2.434   1_455  S
Zr514      O1179   2.436   1_455  S
Zr514       O516   2.435       .  S
Zr514       O518   2.367       .  S
Zr514      O1015   2.369   1_455  S
Zr514      O1206   2.367   1_455  S
O515      Zr1178   2.437       .  S
O515       H1220   0.990       .  S
O515       H1223   0.990       .  S
O516       H1213   0.990   1_455  S
O517      Zr1175   2.363   1_554  S
O517      Zr1012   2.365       .  S
O517       Zr537   2.391   1_554  S
O518        H545   0.966       .  S
O519        C521   1.285       .  A
O519      Zr1195   2.420       .  S
O520        C521   1.289       .  A
C521        C569   1.475       .  S
O522        C524   1.289       .  A
O522       Zr534   2.447       .  S
O523        C524   1.286       .  A
C524        C596   1.476       .  S
O525        C527   1.285       .  A
O525      Zr1198   2.416       .  S
O526        C527   1.292       .  A
O526       Zr538   2.453       .  S
C527        C608   1.501       .  S
O528        C530   1.285       .  A
O528       Zr531   2.420       .  S
O529        C530   1.289       .  A
C530        C629   1.502       .  S
Zr531      O1183   2.420       .  S
Zr531       O532   2.436       .  S
Zr531       O533   2.434       .  S
Zr531      O1037   2.370       .  S
Zr531       O540   2.371       .  S
Zr531      O1205   2.367       .  S
O532       H1216   0.989       .  S
O532        H557   0.990       .  S
O533       H1217   0.990       .  S
Zr534      O1189   2.414       .  S
Zr534      O1199   2.436       .  S
Zr534       O536   2.438       .  S
Zr534      O1203   2.374       .  S
Zr534      O1208   2.377       .  S
O535      Zr1198   2.436       .  S
O535       H1215   0.990   1_455  S
O536       H1214   0.990       .  S
O536        H560   0.990       .  S
Zr537       O543   2.387       .  S
Zr538       O539   2.400       .  S
Zr538       O544   2.393       .  S
O539      Zr1029   2.372       .  S
O539      Zr1198   2.374       .  S
O539        H547   0.967       .  S
O541      Zr1195   2.366       .  S
O542      Zr1178   2.368       .  S
O542        H546   0.966       .  S
O543      Zr1175   2.371       .  S
O543        H548   0.966       .  S
O544      Zr1198   2.378       .  S
H549       O1180   0.990       .  S
H550       O1200   0.990       .  S
H551       O1199   0.990       .  S
H552       O1196   0.989       .  S
H553       O1197   0.990       .  S
H554       O1177   0.990       .  S
H555       O1176   0.990       .  S
H556       O1179   0.990       .  S
H559       O1179   0.990       .  S
C561        C562   1.580       .  S
C561        C564   1.563       .  S
C561        C565   1.569       .  S
C561        C572   1.569       .  S
C562        C563   1.580       .  S
C562        C568   1.559       .  S
C562        C644   1.551       .  S
C563        C564   1.583       .  S
C563        C567   1.571       .  S
C563        C581   1.581       .  S
C564        C566   1.576       .  S
C564        C605   1.547       .  S
C565        C566   1.576       .  S
C565        C568   1.582       .  S
C565        C632   1.552       .  S
C566        C567   1.573       .  S
C566        C593   1.569       .  S
C567        C568   1.575       .  S
C567        C653   1.533       .  S
C568        C617   1.558       .  S
C569        C570   1.399       .  A
C569        C574   1.399       .  A
C570        C571   1.414       .  A
C570        H575   1.085       .  S
C571        C572   1.432       .  A
C571        C578   1.436       .  S
C572        C573   1.407       .  A
C573        C574   1.388       .  A
C573        H576   1.059       .  S
C574        C577   1.447       .  S
C577        N579   1.157       .  T
C578        N580   1.157       .  T
C581        C582   1.414       .  A
C581        C586   1.436       .  A
C582        C583   1.401       .  A
C582        H587   1.064       .  S
C583        C584   1.402       .  A
C583        C590   1.444       .  S
C584        C585   1.393       .  A
C585        C586   1.408       .  A
C585        H588   1.086       .  S
C586        C589   1.433       .  S
C589        N591   1.157       .  T
C590        N592   1.157       .  T
C593        C594   1.413       .  A
C593        C598   1.432       .  A
C594        C595   1.409       .  A
C594        H599   1.071       .  S
C595        C596   1.406       .  A
C595        C602   1.441       .  S
C596        C597   1.387       .  A
C597        C598   1.397       .  A
C597        H600   1.089       .  S
C598        C601   1.431       .  S
C601        N603   1.157       .  T
C605        C606   1.413       .  A
C605        C610   1.421       .  A
C606        C607   1.410       .  A
C606        H611   1.072       .  S
C607        C608   1.412       .  A
C607        C614   1.441       .  S
C608        C609   1.405       .  A
C609        C610   1.394       .  A
C609        H612   1.085       .  S
C610        C613   1.442       .  S
C613        N615   1.157       .  T
C617        C618   1.413       .  A
C617        C622   1.433       .  A
C618        C619   1.392       .  A
C618        H623   1.060       .  S
C619        C620   1.398       .  A
C619        C626   1.446       .  S
C620        C621   1.391       .  A
C621        C622   1.400       .  A
C621        H624   1.086       .  S
C622        C625   1.433       .  S
C625        N627   1.158       .  T
C626        N628   1.157       .  T
C629        C630   1.402       .  A
C629        C634   1.412       .  A
C630        C631   1.393       .  A
C630        H635   1.085       .  S
C631        C632   1.421       .  A
C631        C638   1.434       .  S
C632        C633   1.414       .  A
C633        C634   1.410       .  A
C633        H636   1.073       .  S
C634        C637   1.439       .  S
C637        N639   1.156       .  T
C638        N640   1.155       .  T
C641        C642   1.401       .  A
C641        C646   1.409       .  A
C642        C643   1.409       .  A
C642        H647   1.085       .  S
C643        C644   1.431       .  A
C643        C650   1.443       .  S
C644        C645   1.406       .  A
C645        C646   1.397       .  A
C645        H648   1.069       .  S
C646        C649   1.446       .  S
C649        N651   1.157       .  T
C650        N652   1.157       .  T
C653        C654   1.419       .  A
C653        C658   1.425       .  A
C654        C655   1.404       .  A
C654        H659   1.082       .  S
C655        C656   1.405       .  A
C655        C662   1.443       .  S
C656        C657   1.393       .  A
C657        C658   1.391       .  A
C657        H660   1.088       .  S
C658        C661   1.434       .  S
C661        N663   1.157       .  T
C662        N664   1.157       .  T
O665        C667   1.285       .  A
O666        C667   1.282       .  A
O666       Zr703   2.406       .  S
C667        C786   1.459       .  S
O668        C670   1.288       .  A
O668       Zr680   2.444       .  S
O669        C670   1.290       .  A
O669      Zr1036   2.445   1_554  S
C670        C750   1.483       .  S
O671        C673   1.290       .  A
O672        C673   1.282       .  A
O672       Zr869   2.408   1_554  S
C673        C822   1.469       .  S
O674        C676   1.286       .  A
O674       Zr677   2.429       .  S
O675        C676   1.293       .  A
O675      Zr1202   2.460       .  S
C676        C807   1.487       .  S
Zr677       O678   2.434       .  S
Zr677       O679   2.437       .  S
Zr677       O850   2.364       .  S
Zr677      O1039   2.369       .  S
O679        H724   0.990       .  S
Zr680       O682   2.434       .  S
Zr680       O684   2.364       .  S
Zr680      O1042   2.367       .  S
O683       Zr703   2.395       .  S
O684       Zr843   2.364   1_554  S
O684      Zr1036   2.391   1_554  S
O684        H711   0.966       .  S
O685        C687   1.285       .  A
O686        C687   1.289       .  A
O686       Zr870   2.447   1_545  S
C687        C735   1.478       .  S
O688        C690   1.289       .  A
O688       Zr700   2.448   1_655  S
O689        C690   1.285       .  A
O689      Zr1201   2.432   1_544  S
C690        C762   1.477       .  S
O691        C693   1.284       .  A
O692        C693   1.291       .  A
O692       Zr704   2.450   1_544  S
C693        C774   1.499       .  S
O694        C696   1.285       .  A
O694       Zr697   2.417   1_655  S
O695        C696   1.290       .  A
O695      Zr1035   2.453   1_545  S
C696        C795   1.503       .  S
Zr697       O698   2.437       .  S
Zr697       O699   2.433       .  S
Zr697       O706   2.369   1_455  S
Zr697      O1041   2.363   1_445  S
O698        H723   0.990       .  S
Zr700       O702   2.437       .  S
Zr700       O872   2.363   1_454  S
Zr700      O1040   2.356   1_445  S
O702        H726   0.990       .  S
Zr703       O838   2.406       .  S
Zr703      O1187   2.435       .  S
Zr703      O1027   2.454       .  S
Zr703      O1038   2.378       .  S
Zr703       O874   2.391       .  S
Zr703       O709   2.385       .  S
Zr704      O1001   2.444   1_556  S
Zr704      O1173   2.458       .  S
Zr704       O852   2.449   1_565  S
Zr704      O1016   2.390   1_556  S
Zr704       O705   2.402   1_565  S
Zr704       O873   2.387       .  S
Zr704       O710   2.395   1_556  S
O705        H713   0.967       .  S
O706       Zr866   2.364   1_655  S
O706      Zr1035   2.379   1_545  S
O707      Zr1009   2.371       .  S
O707       Zr870   2.390       .  S
O708      Zr1032   2.354   1_655  S
O708       Zr869   2.391   1_554  S
O708        H712   0.966       .  S
O709      Zr1029   2.362   1_655  S
O709        H714   0.966       .  S
O710      Zr1012   2.369       .  S
C727        C728   1.581       .  S
C727        C730   1.563       .  S
C727        C731   1.569       .  S
C727        C738   1.569       .  S
C728        C729   1.582       .  S
C728        C734   1.560       .  S
C728        C810   1.554       .  S
C729        C730   1.583       .  S
C729        C733   1.571       .  S
C729        C747   1.584       .  S
C730        C732   1.576       .  S
C730        C771   1.544       .  S
C731        C732   1.576       .  S
C731        C734   1.582       .  S
C731        C798   1.553       .  S
C732        C733   1.573       .  S
C732        C759   1.570       .  S
C733        C734   1.577       .  S
C733        C819   1.532       .  S
C734        C783   1.559       .  S
C735        C736   1.400       .  A
C735        C740   1.398       .  A
C736        C737   1.415       .  A
C736        H741   1.085       .  S
C737        C738   1.433       .  A
C737        C744   1.436       .  S
C738        C739   1.406       .  A
C739        C740   1.388       .  A
C739        H742   1.059       .  S
C740        C743   1.446       .  S
C743        N745   1.156       .  T
C744        N746   1.157       .  T
C747        C748   1.414       .  A
C747        C752   1.436       .  A
C748        C749   1.402       .  A
C748        H753   1.064       .  S
C749        C750   1.402       .  A
C749        C756   1.444       .  S
C750        C751   1.394       .  A
C751        C752   1.409       .  A
C751        H754   1.086       .  S
C752        C755   1.432       .  S
C755        N757   1.157       .  T
C756        N758   1.157       .  T
C759        C760   1.413       .  A
C759        C764   1.433       .  A
C760        C761   1.408       .  A
C760        H765   1.071       .  S
C761        C762   1.405       .  A
C761        C768   1.441       .  S
C762        C763   1.387       .  A
C763        C764   1.398       .  A
C763        H766   1.089       .  S
C764        C767   1.431       .  S
C767        N769   1.157       .  T
C768       N1102   1.156       .  T
N770       C1100   1.156       .  T
C771        C772   1.413       .  A
C771        C776   1.420       .  A
C772        C773   1.408       .  A
C772        H777   1.071       .  S
C773        C774   1.411       .  A
C773        C780   1.442       .  S
C774        C775   1.406       .  A
C775        C776   1.392       .  A
C775        H778   1.085       .  S
C776        C779   1.442       .  S
C779        N781   1.157       .  T
C780        N948   1.157       .  T
N782        C946   1.157       .  T
C783        C784   1.415       .  A
C783        C788   1.432       .  A
C784        C785   1.393       .  A
C784        H789   1.060       .  S
C785        C786   1.397       .  A
C785        C792   1.446       .  S
C786        C787   1.390       .  A
C787        C788   1.398       .  A
C787        H790   1.086       .  S
C788        C791   1.433       .  S
C791        N793   1.158       .  T
C792        N794   1.157       .  T
C795        C796   1.403       .  A
C795        C800   1.411       .  A
C796        C797   1.395       .  A
C796        H801   1.085       .  S
C797        C798   1.422       .  A
C797        C804   1.435       .  S
C798        C799   1.414       .  A
C799        C800   1.409       .  A
C799        H802   1.073       .  S
C800        C803   1.440       .  S
C803        N805   1.156       .  T
C804        N806   1.155       .  T
C807        C808   1.402       .  A
C807        C812   1.409       .  A
C808        C809   1.411       .  A
C808        H813   1.085       .  S
C809        C810   1.432       .  A
C809        C816   1.443       .  S
C810        C811   1.406       .  A
C811        C812   1.398       .  A
C811        H814   1.069       .  S
C812        C815   1.445       .  S
C815        N817   1.157       .  T
C816        N818   1.157       .  T
C819        C820   1.419       .  A
C819        C824   1.423       .  A
C820        C821   1.404       .  A
C820        H825   1.082       .  S
C821        C822   1.406       .  A
C821        C828   1.443       .  S
C822        C823   1.392       .  A
C823        C824   1.390       .  A
C823        H826   1.088       .  S
C824        C827   1.433       .  S
C827        N829   1.157       .  T
C828        N830   1.157       .  T
O831        C833   1.286       .  A
O832        C833   1.283       .  A
O832       Zr869   2.408       .  S
C833        C952   1.462       .  S
O834        C836   1.289       .  A
O834       Zr846   2.446       .  S
O835        C836   1.291       .  A
O835      Zr1202   2.447       .  S
C836        C916   1.484       .  S
O837        C839   1.290       .  A
O838        C839   1.281       .  A
C839        C988   1.468       .  S
O840        C842   1.286       .  A
O840       Zr843   2.426       .  S
O841        C842   1.292       .  A
O841      Zr1036   2.458       .  S
C842        C973   1.484       .  S
Zr843       O844   2.435       .  S
Zr843       O845   2.437       .  S
Zr843      O1205   2.370       .  S
O845        H890   0.990       .  S
Zr846       O848   2.435       .  S
Zr846       O850   2.367       .  S
Zr846      O1208   2.367       .  S
O849       Zr869   2.394   1_554  S
O850      Zr1202   2.391       .  S
O850        H877   0.966       .  S
O851        C853   1.284       .  A
O852        C853   1.290       .  A
C853        C901   1.476       .  S
O854        C856   1.289       .  A
O854       Zr866   2.449   1_655  S
O855        C856   1.285       .  A
O855      Zr1035   2.429   1_545  S
C856        C928   1.475       .  S
O857        C859   1.284       .  A
O858        C859   1.291       .  A
O858       Zr870   2.453   1_545  S
C859        C940   1.501       .  S
O860        C862   1.285       .  A
O860       Zr863   2.417   1_655  S
O861        C862   1.289       .  A
O861      Zr1201   2.447   1_545  S
C862        C961   1.501       .  S
Zr863       O864   2.437       .  S
Zr863       O865   2.434       .  S
Zr863       O872   2.369   1_455  S
Zr863      O1207   2.364   1_445  S
O864        H889   0.990       .  S
Zr866       O868   2.437       .  S
Zr866      O1206   2.354   1_445  S
O868        H892   0.990       .  S
Zr869      O1021   2.436   1_556  S
Zr869      O1193   2.452       .  S
Zr869      O1204   2.379       .  S
Zr869       O875   2.388       .  S
Zr870      O1167   2.443       .  S
Zr870      O1007   2.453       .  S
Zr870      O1182   2.392       .  S
Zr870       O871   2.401   1_565  S
Zr870       O876   2.392       .  S
O871        H879   0.966       .  S
O872      Zr1201   2.378   1_545  S
O873      Zr1175   2.367       .  S
O874      Zr1198   2.355   1_655  S
O874        H878   0.966       .  S
O875      Zr1195   2.363   1_655  S
O875        H880   0.966       .  S
O876      Zr1178   2.366       .  S
C893        C894   1.581       .  S
C893        C896   1.563       .  S
C893        C897   1.569       .  S
C893        C904   1.568       .  S
C894        C895   1.581       .  S
C894        C900   1.559       .  S
C894        C976   1.552       .  S
C895        C896   1.583       .  S
C895        C899   1.570       .  S
C895        C913   1.583       .  S
C896        C898   1.575       .  S
C896        C937   1.545       .  S
C897        C898   1.576       .  S
C897        C900   1.582       .  S
C897        C964   1.551       .  S
C898        C899   1.572       .  S
C898        C925   1.569       .  S
C899        C900   1.576       .  S
C899        C985   1.529       .  S
C900        C949   1.560       .  S
C901        C902   1.400       .  A
C901        C906   1.399       .  A
C902        C903   1.415       .  A
C902        H907   1.085       .  S
C903        C904   1.432       .  A
C903        C910   1.436       .  S
C904        C905   1.406       .  A
C905        C906   1.387       .  A
C905        H908   1.058       .  S
C906        C909   1.446       .  S
C909        N911   1.157       .  T
C910        N912   1.157       .  T
C913        C914   1.413       .  A
C913        C918   1.435       .  A
C914        C915   1.402       .  A
C914        H919   1.065       .  S
C915        C916   1.402       .  A
C915        C922   1.444       .  S
C916        C917   1.394       .  A
C917        C918   1.409       .  A
C917        H920   1.086       .  S
C918        C921   1.433       .  S
C921        N923   1.157       .  T
C922        N924   1.157       .  T
C925        C926   1.413       .  A
C925        C930   1.432       .  A
C926        C927   1.408       .  A
C926        H931   1.071       .  S
C927        C928   1.405       .  A
C927        C934   1.442       .  S
C928        C929   1.387       .  A
C929        C930   1.397       .  A
C929        H932   1.089       .  S
C930        C933   1.431       .  S
C933        N935   1.157       .  T
C934       N1268   1.157       .  T
N936       C1266   1.156       .  T
C937        C938   1.414       .  A
C937        C942   1.419       .  A
C938        C939   1.410       .  A
C938        H943   1.071       .  S
C939        C940   1.412       .  A
C939        C946   1.442       .  S
C940        C941   1.406       .  A
C941        C942   1.392       .  A
C941        H944   1.084       .  S
C942        C945   1.442       .  S
C945        N947   1.156       .  T
C949        C950   1.414       .  A
C949        C954   1.433       .  A
C950        C951   1.393       .  A
C950        H955   1.060       .  S
C951        C952   1.398       .  A
C951        C958   1.446       .  S
C952        C953   1.391       .  A
C953        C954   1.400       .  A
C953        H956   1.086       .  S
C954        C957   1.433       .  S
C957        N959   1.158       .  T
C958        N960   1.157       .  T
C961        C962   1.402       .  A
C961        C966   1.412       .  A
C962        C963   1.393       .  A
C962        H967   1.085       .  S
C963        C964   1.421       .  A
C963        C970   1.435       .  S
C964        C965   1.414       .  A
C965        C966   1.410       .  A
C965        H968   1.073       .  S
C966        C969   1.440       .  S
C969        N971   1.156       .  T
C970        N972   1.155       .  T
C973        C974   1.401       .  A
C973        C978   1.408       .  A
C974        C975   1.410       .  A
C974        H979   1.085       .  S
C975        C976   1.432       .  A
C975        C982   1.443       .  S
C976        C977   1.406       .  A
C977        C978   1.397       .  A
C977        H980   1.068       .  S
C978        C981   1.446       .  S
C981        N983   1.157       .  T
C982        N984   1.157       .  T
C985        C986   1.419       .  A
C985        C990   1.423       .  A
C986        C987   1.403       .  A
C986        H991   1.082       .  S
C987        C988   1.405       .  A
C987        C994   1.443       .  S
C988        C989   1.393       .  A
C989        C990   1.390       .  A
C989        H992   1.088       .  S
C990        C993   1.433       .  S
C993        N995   1.157       .  T
C994        N996   1.157       .  T
O997        C999   1.286       .  A
O998        C999   1.283       .  A
O998      Zr1035   2.408       .  S
C999       C1118   1.462       .  S
O1000      C1002   1.289       .  A
O1000     Zr1012   2.447       .  S
O1001      C1002   1.290       .  A
C1002      C1082   1.484       .  S
O1003      C1005   1.289       .  A
O1004      C1005   1.282       .  A
O1004     Zr1201   2.412   1_554  S
C1005      C1154   1.470       .  S
O1006      C1008   1.285       .  A
O1006     Zr1009   2.423       .  S
O1007      C1008   1.292       .  A
C1008      C1139   1.481       .  S
Zr1009     O1010   2.435       .  S
Zr1009     O1011   2.437       .  S
Zr1009     O1182   2.364       .  S
O1011      H1056   0.990       .  S
Zr1012     O1014   2.435       .  S
Zr1012     O1016   2.366       .  S
O1015     Zr1035   2.393       .  S
O1016     Zr1175   2.365   1_554  S
O1016      H1043   0.966       .  S
O1017      C1019   1.284       .  A
O1018      C1019   1.290       .  A
O1018     Zr1202   2.450       .  S
C1019      C1067   1.477       .  S
O1020      C1022   1.290       .  A
O1020     Zr1032   2.451   1_655  S
O1021      C1022   1.286       .  A
C1022      C1094   1.479       .  S
O1023      C1025   1.284       .  A
O1024      C1025   1.292       .  A
O1024     Zr1036   2.453   1_554  S
C1025      C1106   1.501       .  S
O1026      C1028   1.286       .  A
O1026     Zr1029   2.422   1_655  S
O1027      C1028   1.290       .  A
C1028      C1127   1.504       .  S
Zr1029     O1030   2.436       .  S
Zr1029     O1031   2.434       .  S
Zr1029     O1038   2.371   1_455  S
O1030      H1055   0.990       .  S
Zr1032     O1034   2.437       .  S
Zr1032     O1204   2.365   1_454  S
O1034      H1058   0.990       .  S
Zr1035     O1170   2.410       .  S
Zr1035     O1206   2.392       .  S
Zr1035     O1041   2.385       .  S
Zr1036     O1184   2.448       .  S
Zr1036     O1037   2.400       .  S
Zr1036     O1205   2.391       .  S
Zr1036     O1042   2.393   1_556  S
O1037      H1045   0.966       .  S
O1038     Zr1198   2.366   1_655  S
O1039     Zr1202   2.388       .  S
O1040     Zr1201   2.391   1_554  S
O1040      H1044   0.966       .  S
O1041      H1046   0.966       .  S
C1059      C1060   1.580       .  S
C1059      C1062   1.564       .  S
C1059      C1063   1.569       .  S
C1059      C1070   1.569       .  S
C1060      C1061   1.580       .  S
C1060      C1066   1.559       .  S
C1060      C1142   1.548       .  S
C1061      C1062   1.583       .  S
C1061      C1065   1.571       .  S
C1061      C1079   1.584       .  S
C1062      C1064   1.576       .  S
C1062      C1103   1.546       .  S
C1063      C1064   1.577       .  S
C1063      C1066   1.582       .  S
C1063      C1130   1.553       .  S
C1064      C1065   1.573       .  S
C1064      C1091   1.571       .  S
C1065      C1066   1.576       .  S
C1065      C1151   1.531       .  S
C1066      C1115   1.561       .  S
C1067      C1068   1.399       .  A
C1067      C1072   1.399       .  A
C1068      C1069   1.415       .  A
C1068      H1073   1.085       .  S
C1069      C1070   1.432       .  A
C1069      C1076   1.436       .  S
C1070      C1071   1.407       .  A
C1071      C1072   1.389       .  A
C1071      H1074   1.059       .  S
C1072      C1075   1.447       .  S
C1075      N1077   1.157       .  T
C1076      N1078   1.157       .  T
C1079      C1080   1.414       .  A
C1079      C1084   1.436       .  A
C1080      C1081   1.402       .  A
C1080      H1085   1.065       .  S
C1081      C1082   1.402       .  A
C1081      C1088   1.444       .  S
C1082      C1083   1.394       .  A
C1083      C1084   1.409       .  A
C1083      H1086   1.086       .  S
C1084      C1087   1.433       .  S
C1087      N1089   1.157       .  T
C1088      N1090   1.157       .  T
C1091      C1092   1.414       .  A
C1091      C1096   1.433       .  A
C1092      C1093   1.410       .  A
C1092      H1097   1.071       .  S
C1093      C1094   1.406       .  A
C1093      C1100   1.441       .  S
C1094      C1095   1.386       .  A
C1095      C1096   1.397       .  A
C1095      H1098   1.089       .  S
C1096      C1099   1.430       .  S
C1099      N1101   1.157       .  T
C1103      C1104   1.413       .  A
C1103      C1108   1.420       .  A
C1104      C1105   1.409       .  A
C1104      H1109   1.072       .  S
C1105      C1106   1.411       .  A
C1105      C1112   1.441       .  S
C1106      C1107   1.406       .  A
C1107      C1108   1.393       .  A
C1107      H1110   1.084       .  S
C1108      C1111   1.442       .  S
C1111      N1113   1.157       .  T
C1112      N1280   1.156       .  T
N1114      C1278   1.157       .  T
C1115      C1116   1.415       .  A
C1115      C1120   1.433       .  A
C1116      C1117   1.394       .  A
C1116      H1121   1.060       .  S
C1117      C1118   1.398       .  A
C1117      C1124   1.446       .  S
C1118      C1119   1.390       .  A
C1119      C1120   1.400       .  A
C1119      H1122   1.086       .  S
C1120      C1123   1.433       .  S
C1123      N1125   1.158       .  T
C1124      N1126   1.157       .  T
C1127      C1128   1.402       .  A
C1127      C1132   1.413       .  A
C1128      C1129   1.394       .  A
C1128      H1133   1.085       .  S
C1129      C1130   1.420       .  A
C1129      C1136   1.435       .  S
C1130      C1131   1.415       .  A
C1131      C1132   1.411       .  A
C1131      H1134   1.073       .  S
C1132      C1135   1.441       .  S
C1135      N1137   1.156       .  T
C1136      N1138   1.155       .  T
C1139      C1140   1.400       .  A
C1139      C1144   1.408       .  A
C1140      C1141   1.408       .  A
C1140      H1145   1.085       .  S
C1141      C1142   1.431       .  A
C1141      C1148   1.443       .  S
C1142      C1143   1.405       .  A
C1143      C1144   1.395       .  A
C1143      H1146   1.069       .  S
C1144      C1147   1.446       .  S
C1147      N1149   1.157       .  T
C1148      N1150   1.157       .  T
C1151      C1152   1.419       .  A
C1151      C1156   1.424       .  A
C1152      C1153   1.403       .  A
C1152      H1157   1.082       .  S
C1153      C1154   1.406       .  A
C1153      C1160   1.443       .  S
C1154      C1155   1.394       .  A
C1155      C1156   1.391       .  A
C1155      H1158   1.088       .  S
C1156      C1159   1.434       .  S
C1159      N1161   1.157       .  T
C1160      N1162   1.157       .  T
O1163      C1165   1.286       .  A
O1164      C1165   1.282       .  A
O1164     Zr1201   2.403       .  S
C1165      C1284   1.459       .  S
O1166      C1168   1.288       .  A
O1166     Zr1178   2.442       .  S
O1167      C1168   1.290       .  A
C1168      C1248   1.481       .  S
O1169      C1171   1.289       .  A
O1170      C1171   1.282       .  A
C1171      C1320   1.469       .  S
O1172      C1174   1.286       .  A
O1172     Zr1175   2.425       .  S
O1173      C1174   1.292       .  A
C1174      C1305   1.485       .  S
Zr1175     O1176   2.435       .  S
Zr1175     O1177   2.437       .  S
O1177      H1222   0.990       .  S
Zr1178     O1180   2.435       .  S
Zr1178     O1182   2.366       .  S
O1181     Zr1201   2.391   1_554  S
O1182      H1209   0.966       .  S
O1183      C1185   1.285       .  A
O1184      C1185   1.290       .  A
C1185      C1233   1.477       .  S
O1186      C1188   1.290       .  A
O1186     Zr1198   2.450   1_655  S
O1187      C1188   1.286       .  A
C1188      C1260   1.478       .  S
O1189      C1191   1.284       .  A
O1190      C1191   1.291       .  A
O1190     Zr1202   2.450       .  S
C1191      C1272   1.499       .  S
O1192      C1194   1.284       .  A
O1192     Zr1195   2.417   1_655  S
O1193      C1194   1.290       .  A
C1194      C1293   1.502       .  S
Zr1195     O1196   2.437       .  S
Zr1195     O1197   2.434       .  S
Zr1195     O1204   2.371   1_455  S
O1196      H1221   0.990       .  S
Zr1198     O1200   2.438       .  S
O1200      H1224   0.990       .  S
Zr1201     O1207   2.389       .  S
Zr1202     O1203   2.403       .  S
Zr1202     O1208   2.393       .  S
O1203      H1211   0.967       .  S
O1206      H1210   0.966       .  S
O1207      H1212   0.966       .  S
C1225      C1226   1.581       .  S
C1225      C1228   1.563       .  S
C1225      C1229   1.569       .  S
C1225      C1236   1.569       .  S
C1226      C1227   1.581       .  S
C1226      C1232   1.559       .  S
C1226      C1308   1.552       .  S
C1227      C1228   1.583       .  S
C1227      C1231   1.571       .  S
C1227      C1245   1.583       .  S
C1228      C1230   1.576       .  S
C1228      C1269   1.543       .  S
C1229      C1230   1.576       .  S
C1229      C1232   1.582       .  S
C1229      C1296   1.551       .  S
C1230      C1231   1.573       .  S
C1230      C1257   1.571       .  S
C1231      C1232   1.575       .  S
C1231      C1317   1.530       .  S
C1232      C1281   1.559       .  S
C1233      C1234   1.399       .  A
C1233      C1238   1.400       .  A
C1234      C1235   1.414       .  A
C1234      H1239   1.085       .  S
C1235      C1236   1.432       .  A
C1235      C1242   1.436       .  S
C1236      C1237   1.406       .  A
C1237      C1238   1.388       .  A
C1237      H1240   1.059       .  S
C1238      C1241   1.446       .  S
C1241      N1243   1.156       .  T
C1242      N1244   1.157       .  T
C1245      C1246   1.415       .  A
C1245      C1250   1.436       .  A
C1246      C1247   1.402       .  A
C1246      H1251   1.065       .  S
C1247      C1248   1.401       .  A
C1247      C1254   1.445       .  S
C1248      C1249   1.393       .  A
C1249      C1250   1.408       .  A
C1249      H1252   1.086       .  S
C1250      C1253   1.433       .  S
C1253      N1255   1.157       .  T
C1254      N1256   1.157       .  T
C1257      C1258   1.415       .  A
C1257      C1262   1.433       .  A
C1258      C1259   1.410       .  A
C1258      H1263   1.072       .  S
C1259      C1260   1.405       .  A
C1259      C1266   1.441       .  S
C1260      C1261   1.386       .  A
C1261      C1262   1.397       .  A
C1261      H1264   1.089       .  S
C1262      C1265   1.430       .  S
C1265      N1267   1.157       .  T
C1269      C1270   1.413       .  A
C1269      C1274   1.419       .  A
C1270      C1271   1.408       .  A
C1270      H1275   1.071       .  S
C1271      C1272   1.412       .  A
C1271      C1278   1.442       .  S
C1272      C1273   1.406       .  A
C1273      C1274   1.392       .  A
C1273      H1276   1.084       .  S
C1274      C1277   1.442       .  S
C1277      N1279   1.156       .  T
C1281      C1282   1.414       .  A
C1281      C1286   1.433       .  A
C1282      C1283   1.392       .  A
C1282      H1287   1.060       .  S
C1283      C1284   1.397       .  A
C1283      C1290   1.446       .  S
C1284      C1285   1.390       .  A
C1285      C1286   1.399       .  A
C1285      H1288   1.086       .  S
C1286      C1289   1.433       .  S
C1289      N1291   1.158       .  T
C1290      N1292   1.157       .  T
C1293      C1294   1.403       .  A
C1293      C1298   1.411       .  A
C1294      C1295   1.394       .  A
C1294      H1299   1.085       .  S
C1295      C1296   1.421       .  A
C1295      C1302   1.435       .  S
C1296      C1297   1.414       .  A
C1297      C1298   1.409       .  A
C1297      H1300   1.073       .  S
C1298      C1301   1.440       .  S
C1301      N1303   1.156       .  T
C1302      N1304   1.155       .  T
C1305      C1306   1.401       .  A
C1305      C1310   1.409       .  A
C1306      C1307   1.409       .  A
C1306      H1311   1.085       .  S
C1307      C1308   1.431       .  A
C1307      C1314   1.443       .  S
C1308      C1309   1.406       .  A
C1309      C1310   1.397       .  A
C1309      H1312   1.069       .  S
C1310      C1313   1.446       .  S
C1313      N1315   1.157       .  T
C1314      N1316   1.157       .  T
C1317      C1318   1.419       .  A
C1317      C1322   1.424       .  A
C1318      C1319   1.403       .  A
C1318      H1323   1.082       .  S
C1319      C1320   1.405       .  A
C1319      C1326   1.443       .  S
C1320      C1321   1.393       .  A
C1321      C1322   1.390       .  A
C1321      H1324   1.088       .  S
C1322      C1325   1.434       .  S
C1325      N1327   1.157       .  T
C1326      N1328   1.157       .  T
