geometry optimzed in LAMMPS
_audit_creation_date              2020-11-30 
_audit_creation_method            'lammps2cif' 
_symmetry_space_group_name_H-M    'P1' 
_symmetry_Int_Tables_number       1 
_symmetry_cell_setting            triclinic 
loop_ 
_symmetry_equiv_pos_as_xyz 
  x,y,z 
_cell_length_a                    44.72506001570455 
_cell_length_b                    44.48244866326198 
_cell_length_c                    44.661543574594816 
_cell_angle_alpha                 90.09830844958458 
_cell_angle_beta                  90.07213014044108 
_cell_angle_gamma                 89.9878458220524 
loop_ 
_atom_site_label 
_atom_site_type_symbol 
_atom_site_fract_x 
_atom_site_fract_y 
_atom_site_fract_z 
_atom_site_charge 
C1          C  0.99978280  0.26210245  0.74281394     0.00140
C2          C  0.99798110  0.23998132  0.76419381     0.00140
C3          C  0.26204865  0.99881964  0.74221147     0.00140
C4          C  0.24000677  0.00034272  0.76365227     0.00140
C5          C  0.99989227  0.75786456  0.23696323     0.00140
C6          C  0.99886431  0.73604155  0.25855249     0.00140
C7          C  0.73076073  0.00007220  0.25268129     0.00140
C8          C  0.75467188  0.99958972  0.23334115     0.00140
C9          C  0.75974389  0.24103155  0.00130518     0.00140
C10         C  0.73754233  0.26230882  0.00228830     0.00140
C11         C  0.25261998  0.73206848  0.00055165     0.00140
C12         C  0.23190451  0.75494545  0.00008810     0.00140
C13         C  0.75125495  0.76872533  0.99916194     0.00140
C14         C  0.72990981  0.74639170  0.99888036     0.00140
C15         C  0.75640724  0.00184648  0.76389493     0.00140
C16         C  0.73526238  0.00218114  0.74160436     0.00140
C17         C  0.99786594  0.73336995  0.74264091     0.00140
C18         C  0.99756332  0.75440433  0.76509508     0.00140
Fe19       Fe  0.12088436  0.82371546  0.88098879     1.65780
Fe20       Fe  0.16871237  0.88152995  0.88001602     1.73250
Fe21       Fe  0.11429470  0.87706576  0.82724965     1.54420
O22         O  0.11563394  0.83671176  0.80377884    -0.82100
O23         O  0.15242970  0.92334467  0.87043510    -0.80400
O24         O  0.10667729  0.80522687  0.84114678    -0.84600
O25         O  0.07888181  0.84139040  0.88647263    -0.79460
O26         O  0.15394428  0.89358693  0.80834727    -0.81230
O27         O  0.14714792  0.88439326  0.92065848    -0.83980
C28         C  0.06262509  0.85482251  0.86744171     0.96790
C29         C  0.10364881  0.81278147  0.81386855     1.04230
O30         O  0.13495629  0.86046982  0.86217433    -1.12960
O31         O  0.18957103  0.84235972  0.89476762    -0.75390
O32         O  0.16264926  0.80406409  0.87824566    -0.78880
O33         O  0.07265501  0.86541048  0.84308092    -0.79570
C34         C  0.18415766  0.81426435  0.89393257     0.95690
O35         O  0.13059660  0.83764635  0.92367667    -0.77530
O36         O  0.19108929  0.88168103  0.83952263    -0.82720
C37         C  0.12814858  0.93394805  0.86055946     0.98310
C38         C  0.18124252  0.89574536  0.81664946     1.04230
O39         O  0.10857354  0.91797635  0.84770483    -0.78360
C40         C  0.13639427  0.86280468  0.93565725     1.02530
Fe41       Fe  0.82941550  0.88544205  0.87854448     1.65780
Fe42       Fe  0.88453519  0.87849351  0.82778864     1.73250
Fe43       Fe  0.87626623  0.82577148  0.88194692     1.54420
O44         O  0.86737476  0.84157325  0.92421880    -0.82100
O45         O  0.88095884  0.83815718  0.80523990    -0.80400
O46         O  0.85005813  0.88833970  0.91941252    -0.84600
O47         O  0.80747094  0.84700890  0.89352789    -0.79460
O48         O  0.91871972  0.84198070  0.88727399    -0.81230
O49         O  0.84570429  0.89593064  0.80817060    -0.83980
C50         C  0.81200755  0.81871666  0.89444344     0.96790
C51         C  0.86090352  0.86713462  0.93491640     1.04230
O52         O  0.86301476  0.86280245  0.86229767    -1.12960
O53         O  0.89173677  0.91914582  0.84800185    -0.75390
O54         O  0.84721711  0.92698912  0.86853985    -0.78880
O55         O  0.83390388  0.80685055  0.88049876    -0.79570
C56         C  0.87250125  0.93629089  0.85972012     0.95690
O57         O  0.80715327  0.88575970  0.83779501    -0.77530
O58         O  0.92578583  0.86564118  0.84397519    -0.82720
C59         C  0.89311863  0.81418526  0.81491371     0.98310
C60         C  0.93549611  0.85434847  0.86815683     1.04230
O61         O  0.89014274  0.80581559  0.84204823    -0.78360
C62         C  0.81797695  0.89819141  0.81445305     1.02530
Fe63       Fe  0.12019477  0.88599951  0.17063454     1.65780
Fe64       Fe  0.11379186  0.82926536  0.12127366     1.73250
Fe65       Fe  0.17194500  0.87783233  0.11600641     1.54420
O66         O  0.15396078  0.91987007  0.10977331    -0.82100
O67         O  0.15232142  0.80761065  0.10753633    -0.80400
O68         O  0.13202999  0.92712891  0.15384539    -0.84600
O69         O  0.16066089  0.88299226  0.19250871    -0.79460
O70         O  0.15637573  0.86699446  0.07414527    -0.81230
O71         O  0.11371227  0.80815406  0.16258291    -0.83980
C72         C  0.18388863  0.89616540  0.18273147     0.96790
C73         C  0.14113213  0.93662060  0.12879290     1.04230
O74         O  0.13570124  0.86396048  0.13635661    -1.12960
O75         O  0.07234034  0.84673282  0.13065106    -0.75390
O76         O  0.07902078  0.89190012  0.15084038    -0.78880
O77         O  0.19183487  0.89366483  0.15541066    -0.79570
C78         C  0.06252265  0.87215616  0.13872389     0.95690
O79         O  0.10415010  0.84771930  0.19121728    -0.77530
O80         O  0.11050755  0.84841639  0.07956229    -0.82720
C81         C  0.18025667  0.81275840  0.10557257     0.98310
C82         C  0.13123248  0.85926753  0.06355904     1.04230
O83         O  0.19197026  0.83570599  0.11817467    -0.78360
C84         C  0.10164849  0.81984326  0.18569991     1.02530
Fe85       Fe  0.88342902  0.83059049  0.11689187     1.65780
Fe86       Fe  0.87704548  0.88193427  0.17299931     1.73250
Fe87       Fe  0.82379787  0.87627508  0.11905623     1.54410
O88         O  0.83708313  0.86833122  0.07632656    -0.82100
O89         O  0.83654831  0.87963141  0.19566178    -0.80400
O90         O  0.88414514  0.85358756  0.07662058    -0.84600
O91         O  0.84475661  0.80887401  0.10245989    -0.79460
O92         O  0.84091332  0.91871327  0.11505733    -0.81230
O93         O  0.89307421  0.84159664  0.19060057    -0.83980
C94         C  0.81659222  0.81269023  0.10365989     0.96790
C95         C  0.86124545  0.86330780  0.06284513     1.04230
O96         O  0.86119720  0.86249770  0.13692560    -1.12960
O97         O  0.91832146  0.88897027  0.15435073    -0.75390
O98         O  0.92496383  0.84829440  0.12641546    -0.78880
O99         O  0.80531043  0.83359744  0.11973248    -0.79570
C100        C  0.93492084  0.87161687  0.13934814     0.95690
O101        O  0.88538358  0.80600174  0.15609923    -0.77530
O102        O  0.86583521  0.92397709  0.15814325    -0.82720
C103        C  0.81282478  0.89226530  0.18604055     0.98310
C104        C  0.85519577  0.93440963  0.13400220     1.04230
O105        O  0.80464822  0.88938906  0.15897462    -0.78360
C106        C  0.89710485  0.81497680  0.18057895     1.02530
Fe107      Fe  0.88028140  0.17461508  0.88302054     1.65780
Fe108      Fe  0.83250099  0.11592848  0.88661635     1.73250
Fe109      Fe  0.87970771  0.12192904  0.82770241     1.54410
O110        O  0.87694592  0.16306017  0.80602889    -0.82100
O111        O  0.84875850  0.07424247  0.87661768    -0.80400
O112        O  0.89012918  0.19444238  0.84238245    -0.84600
O113        O  0.92278365  0.15628811  0.88266584    -0.79460
O114        O  0.83842909  0.10745817  0.81235620    -0.81230
O115        O  0.85776514  0.11435040  0.92538016    -0.83980
C116        C  0.93602292  0.14209077  0.86182928     0.96790
C117        C  0.89098252  0.18630524  0.81511159     1.04230
O118        O  0.86357733  0.13788889  0.86521086    -1.12960
O119        O  0.81241598  0.15499908  0.90123053    -0.75390
O120        O  0.83838007  0.19499457  0.88660757    -0.78880
O121        O  0.92241952  0.13171137  0.83926977    -0.79570
C122        C  0.81617535  0.18326160  0.90033922     0.95690
O123        O  0.87602154  0.16041755  0.92629062    -0.77530
O124        O  0.80520953  0.11363448  0.84903423    -0.82720
C125        C  0.87107515  0.06394859  0.86273595     0.98310
C126        C  0.81248325  0.10335716  0.82337300     1.04230
O127        O  0.88692935  0.08000237  0.84559595    -0.78360
C128        C  0.87081237  0.13569789  0.93899934     1.02530
Fe129      Fe  0.87733833  0.11371503  0.17467276     1.65780
Fe130      Fe  0.88723935  0.16826019  0.12303609     1.73250
Fe131      Fe  0.82976112  0.12034651  0.11558872     1.54410
O132        O  0.84723597  0.07815461  0.11277243    -0.82100
O133        O  0.85005886  0.18917447  0.10481092    -0.80400
O134        O  0.86693387  0.07168679  0.15821275    -0.84600
O135        O  0.83506967  0.11590544  0.19386067    -0.79460
O136        O  0.84875280  0.12868581  0.07466316    -0.81230
O137        O  0.88282855  0.19087593  0.16311800    -0.83980
C138        C  0.81176454  0.10471679  0.18162754     0.96790
C139        C  0.85776786  0.06166214  0.13322719     1.04230
O140        O  0.86436412  0.13442736  0.13824243    -1.12960
O141        O  0.92780124  0.15193139  0.13690026    -0.75390
O142        O  0.91997872  0.10760292  0.15842682    -0.78880
O143        O  0.80702003  0.10727536  0.15369498    -0.79570
C144        C  0.93714149  0.12710437  0.14702707     0.95690
O145        O  0.89193653  0.15351927  0.19484998    -0.77530
O146        O  0.89440434  0.14670074  0.08280625    -0.82720
C147        C  0.82224313  0.18448437  0.10164399     0.98310
C148        C  0.87496846  0.13468826  0.06588315     1.04230
O149        O  0.80966770  0.16226736  0.11443736    -0.78360
C150        C  0.89433548  0.18105590  0.18733307     1.02530
Fe151      Fe  0.12071647  0.11769831  0.82662532     1.65780
Fe152      Fe  0.16790469  0.11783402  0.88584561     1.73250
Fe153      Fe  0.11466739  0.17164537  0.87967929     1.54420
O154        O  0.11767989  0.19378902  0.83926023    -0.82100
O155        O  0.15038821  0.12709847  0.92753517    -0.80400
O156        O  0.10619424  0.15752027  0.80738854    -0.84600
O157        O  0.07848771  0.11251369  0.84370968    -0.79460
O158        O  0.15380420  0.19047002  0.89491437    -0.81230
O159        O  0.14607821  0.07684844  0.88706356    -0.83980
C160        C  0.06276399  0.13199728  0.85719381     0.96790
C161        C  0.10391250  0.18459742  0.81611320     1.04230
O162        O  0.13477321  0.13615686  0.86392619    -1.12960
O163        O  0.18949269  0.10383571  0.84655997    -0.75390
O164        O  0.16276817  0.12016514  0.80779743    -0.78880
O165        O  0.07329286  0.15585301  0.86847972    -0.79570
C166        C  0.18433988  0.10478350  0.81842893     0.95690
O167        O  0.13001460  0.07490537  0.84029521    -0.77530
O168        O  0.19138273  0.15829740  0.88854847    -0.82720
C169        C  0.12674755  0.13908375  0.93762872     0.98310
C170        C  0.18086934  0.18297745  0.89895068     1.04230
O171        O  0.10841362  0.15316146  0.92123532    -0.78360
C172        C  0.13553155  0.06227778  0.86502110     1.02530
Fe173      Fe  0.17073543  0.12198469  0.11560849     1.65780
Fe174      Fe  0.11557939  0.17235345  0.12375314     1.73250
Fe175      Fe  0.12223130  0.11491207  0.17272015     1.54420
O176        O  0.13368377  0.07328897  0.15500821    -0.82100
O177        O  0.12012654  0.19170499  0.16534917    -0.80400
O178        O  0.15104736  0.08125702  0.10894031    -0.84600
O179        O  0.19112340  0.10515135  0.15385341    -0.79460
O180        O  0.08087297  0.10948161  0.15415060    -0.81230
O181        O  0.15468464  0.19259252  0.10752491    -0.83980
C182        C  0.18635761  0.10447910  0.18189874     0.96790
C183        C  0.14128429  0.06400126  0.12914143     1.04230
O184        O  0.13622238  0.13651353  0.13744500    -1.12960
O185        O  0.10890881  0.15471901  0.08201066    -0.75390
O186        O  0.15399674  0.13478818  0.07432396    -0.78880
O187        O  0.16362616  0.11744323  0.19328424    -0.79570
C188        C  0.12879310  0.14399300  0.06493380     0.95690
O189        O  0.19203580  0.16253761  0.12022293    -0.77530
O190        O  0.07390479  0.15546278  0.13548813    -0.82720
C191        C  0.10495620  0.18161542  0.18715070     0.98310
C192        C  0.06417682  0.12989243  0.14365810     1.04230
O193        O  0.10591684  0.15377557  0.19400111    -0.78360
C194        C  0.18230963  0.18539216  0.10637225     1.02530
C195        C  0.49904545  0.23891780  0.26271699     0.00140
C196        C  0.49880447  0.26100926  0.24127793     0.00140
C197        C  0.24550270  0.26788338  0.50238380     0.00140
C198        C  0.26631325  0.24536915  0.50235601     0.00140
C199        C  0.23919252  0.49937973  0.26083400     0.00140
C200        C  0.26143601  0.49920139  0.23968713     0.00140
C201        C  0.26152720  0.25979083  0.00101075     0.00140
C202        C  0.23980240  0.23797515  0.00157471     0.00140
C203        C  0.26063320  0.00057029  0.26152100     0.00140
C204        C  0.23974897  0.00072701  0.23894150     0.00140
C205        C  0.49994730  0.73922277  0.75932984     0.00140
C206        C  0.49918888  0.76172523  0.73835594     0.00140
C207        C  0.24463289  0.73338805  0.49792234     0.00140
C208        C  0.26416757  0.75716525  0.49838680     0.00140
C209        C  0.50235831  0.73609120  0.24246509     0.00140
C210        C  0.50045171  0.76006726  0.26215110     0.00140
Fe211      Fe  0.38323457  0.83017421  0.38055241     1.65780
Fe212      Fe  0.32916284  0.88275649  0.38220093     1.73250
Fe213      Fe  0.37952781  0.88172154  0.32533570     1.54410
O214        O  0.42171087  0.88696467  0.34308326    -0.82100
O215        O  0.30967329  0.89606346  0.34225351    -0.80400
O216        O  0.42478458  0.84513134  0.36978120    -0.84600
O217        O  0.38243410  0.80538512  0.34112426    -0.79460
O218        O  0.37072319  0.92459012  0.33883581    -0.81230
O219        O  0.30583810  0.84250856  0.38355890    -0.83980
C220        C  0.39542728  0.81377886  0.31713077     0.96790
C221        C  0.43675608  0.86771573  0.35747097     1.04230
O222        O  0.36352249  0.86431444  0.36222136    -1.12960
O223        O  0.34404912  0.87466750  0.42492419    -0.75390
O224        O  0.38814726  0.85250188  0.42057750    -0.78880
O225        O  0.39336493  0.84069658  0.30766606    -0.79570
C226        C  0.36851237  0.86580287  0.43606513     0.95690
O227        O  0.34339218  0.81193511  0.39576317    -0.77530
O228        O  0.35076671  0.92347235  0.38417386    -0.82720
C229        C  0.31602300  0.89525298  0.31450246     0.98310
C230        C  0.36323020  0.93750463  0.36293970     1.04230
O231        O  0.33812251  0.88010297  0.30464659    -0.78360
C232        C  0.31579672  0.81908461  0.39665938     1.02530
Fe233      Fe  0.32700938  0.11771942  0.37968035     1.65780
Fe234      Fe  0.38197207  0.17001750  0.38649940     1.73250
Fe235      Fe  0.38114616  0.12313837  0.32745865     1.54420
O236        O  0.38640626  0.08138250  0.34565174    -0.82100
O237        O  0.39587648  0.19149863  0.34729032    -0.80400
O238        O  0.34228800  0.07568796  0.36838043    -0.84600
O239        O  0.30489428  0.12065475  0.33906621    -0.79460
O240        O  0.42379546  0.13274849  0.34051119    -0.81230
O241        O  0.34244629  0.19428400  0.38860293    -0.83980
C242        C  0.31432962  0.10677283  0.31604032     0.96790
C243        C  0.36681739  0.06536451  0.35847797     1.04230
O244        O  0.36287738  0.13737675  0.36443573    -1.12960
O245        O  0.37237669  0.15226168  0.42810212    -0.75390
O246        O  0.34525746  0.11093285  0.42116483    -0.78880
O247        O  0.34162224  0.10824484  0.30846871    -0.79570
C248        C  0.35982813  0.12866557  0.43784477     0.95690
O249        O  0.30896051  0.15775825  0.39518414    -0.77530
O250        O  0.42263857  0.14774612  0.38764506    -0.82720
C251        C  0.39431425  0.18664611  0.31913159     0.98310
C252        C  0.43690033  0.13833343  0.36496017     1.04230
O253        O  0.37844015  0.16532054  0.30853297    -0.78360
C254        C  0.31772454  0.18477169  0.39917807     1.02530
Fe255      Fe  0.61995762  0.82591684  0.37803571     1.65780
Fe256      Fe  0.67385443  0.87885796  0.38535059     1.73250
Fe257      Fe  0.62195145  0.88411975  0.33037893     1.54410
O258        O  0.60667473  0.84520323  0.30945843    -0.82100
O259        O  0.65369447  0.91994156  0.39149207    -0.80400
O260        O  0.62156104  0.80609590  0.33607846    -0.84600
O261        O  0.57818611  0.84143974  0.36841583    -0.79460
O262        O  0.66256902  0.88230731  0.30882936    -0.81230
O263        O  0.65790205  0.86681344  0.42713246    -0.83980
C264        C  0.56566408  0.86555125  0.36032919     0.96790
C265        C  0.60633299  0.81704735  0.31459714     1.04230
O266        O  0.63891092  0.86275093  0.36442872    -1.12960
O267        O  0.69667764  0.83831145  0.38269967    -0.75390
O268        O  0.65968348  0.80648497  0.39193573    -0.78880
O269        O  0.58053955  0.88767723  0.35034805    -0.79570
C270        C  0.68695933  0.81402902  0.39432911     0.95690
O271        O  0.61458566  0.84310509  0.42008966    -0.77530
O272        O  0.69316019  0.89556617  0.34593511    -0.82720
C273        C  0.64185083  0.93652818  0.37175627     0.98310
C274        C  0.68549600  0.89634363  0.31841205     1.04230
O275        O  0.63247725  0.92619824  0.34695480    -0.78360
C276        C  0.63354242  0.85584136  0.43686176     1.02530
Fe277      Fe  0.67279308  0.12291744  0.38344969     1.65780
Fe278      Fe  0.61755062  0.17394687  0.37901760     1.73250
Fe279      Fe  0.62194482  0.11779397  0.32780091     1.54420
O280        O  0.66293176  0.11804165  0.30616363    -0.82100
O281        O  0.57557177  0.15886823  0.36825955    -0.80400
O282        O  0.69234010  0.10730363  0.34459759    -0.84600
O283        O  0.65318781  0.08142962  0.38887643    -0.79460
O284        O  0.60744087  0.15770012  0.30785152    -0.81230
O285        O  0.61212715  0.15353535  0.41984623    -0.83980
C286        C  0.64060423  0.06518039  0.36916554     0.96790
C287        C  0.68575902  0.10476963  0.31709565     1.04230
O288        O  0.63772293  0.13853180  0.36295655    -1.12960
O289        O  0.65695141  0.19359588  0.39473839    -0.75390
O290        O  0.69423838  0.16377873  0.38063664    -0.78880
O291        O  0.63179272  0.07559972  0.34424686    -0.79570
C292        C  0.68453703  0.18657191  0.39488428     0.95690
O293        O  0.65747095  0.13426633  0.42520972    -0.77530
O294        O  0.61984068  0.19547119  0.33815620    -0.82720
C295        C  0.56480969  0.13430109  0.35888594     0.98310
C296        C  0.60591450  0.18539284  0.31533191     1.04230
O297        O  0.58045362  0.11382891  0.34693020    -0.78360
C298        C  0.63224056  0.14141536  0.43577351     1.02530
Fe299      Fe  0.67020152  0.88092325  0.61630899     1.65780
Fe300      Fe  0.61658333  0.88689203  0.66882000     1.73250
Fe301      Fe  0.61644322  0.82759336  0.62204394     1.54410
O302        O  0.61143302  0.84537899  0.58003039    -0.82100
O303        O  0.60234001  0.84804075  0.68971714    -0.80400
O304        O  0.65534762  0.86849487  0.57447988    -0.84600
O305        O  0.69235998  0.84040681  0.62041247    -0.79460
O306        O  0.57371488  0.84152737  0.63138836    -0.81230
O307        O  0.65605846  0.88759054  0.69278766    -0.83980
C308        C  0.68356496  0.81699030  0.60649999     0.96790
C309        C  0.63086927  0.85853850  0.56407863     1.04230
O310        O  0.63491483  0.86486793  0.63608969    -1.12960
O311        O  0.62651717  0.92855773  0.65198371    -0.75390
O312        O  0.65047726  0.92200658  0.60898219    -0.78880
O313        O  0.65646645  0.80850984  0.60767149    -0.79570
C314        C  0.63659975  0.93847208  0.62748315     0.95690
O315        O  0.68830067  0.89763786  0.65607197    -0.77530
O316        O  0.57640165  0.88899020  0.64624300    -0.82720
C317        C  0.60326080  0.81972283  0.68568357     0.98310
C318        C  0.56168777  0.86681472  0.63607331     1.04230
O319        O  0.61830379  0.80834662  0.66422127    -0.78360
C320        C  0.68019107  0.89950512  0.68336885     1.02530
Fe321      Fe  0.61665668  0.11827007  0.66985124     1.65780
Fe322      Fe  0.66980815  0.12512662  0.61568849     1.73250
Fe323      Fe  0.61366599  0.17471300  0.62000171     1.54420
O324        O  0.57174088  0.16030123  0.63114314    -0.82100
O325        O  0.69102366  0.16669894  0.61696830    -0.80400
O326        O  0.57526721  0.11419290  0.64924401    -0.84600
O327        O  0.60253036  0.15888710  0.69014369    -0.79460
O328        O  0.60785171  0.15406150  0.57939195    -0.81230
O329        O  0.68920827  0.11050838  0.65546351    -0.83980
C330        C  0.60394705  0.18694825  0.68379650     0.96790
C331        C  0.55998047  0.13560110  0.63859172     1.04230
O332        O  0.63391971  0.13955790  0.63575839    -1.12960
O333        O  0.65181359  0.08317746  0.61024354    -0.75390
O334        O  0.62677840  0.07623525  0.65275915    -0.78880
O335        O  0.61750181  0.19626988  0.66055659    -0.79570
C336        C  0.63827814  0.06641624  0.62862629     0.95690
O337        O  0.65712051  0.11772362  0.69292404    -0.77530
O338        O  0.65358782  0.13539547  0.57375137    -0.82720
C339        C  0.68000213  0.18912887  0.60305063     0.98310
C340        C  0.62815670  0.14264183  0.56325798     1.04230
O341        O  0.65221401  0.19434728  0.60403738    -0.78360
C342        C  0.68137226  0.10661263  0.68268337     1.02530
Fe343      Fe  0.37858718  0.16805474  0.61495940     1.65780
Fe344      Fe  0.32439744  0.11609010  0.62445164     1.73250
Fe345      Fe  0.38157394  0.12224337  0.67468976     1.54410
O346        O  0.42304078  0.12720113  0.65598197    -0.82100
O347        O  0.30436886  0.11944867  0.66604307    -0.80400
O348        O  0.41726967  0.14372962  0.60918998    -0.84600
O349        O  0.39802149  0.18964577  0.65158571    -0.79460
O350        O  0.38267106  0.07900652  0.65949434    -0.81230
O351        O  0.30620551  0.15669521  0.60879902    -0.83980
C352        C  0.39889416  0.18652091  0.67983827     0.96790
C353        C  0.43296979  0.13243321  0.62996111     1.04230
O354        O  0.36098552  0.13578995  0.63852568    -1.12960
O355        O  0.34167330  0.10833402  0.58253413    -0.75390
O356        O  0.36420251  0.15191637  0.57439041    -0.78880
O357        O  0.38477666  0.16526104  0.69274616    -0.79570
C358        C  0.35341513  0.12733274  0.56516509     0.95690
O359        O  0.33974825  0.19264301  0.61837294    -0.77530
O360        O  0.33921038  0.07379625  0.63554465    -0.82720
C361        C  0.31544054  0.10716912  0.68931885     0.98310
C362        C  0.36325319  0.06318724  0.64622816     1.04230
O363        O  0.34228378  0.11246199  0.69742745    -0.78360
C364        C  0.31533829  0.18382611  0.60643411     1.02530
Fe365      Fe  0.37894470  0.87641472  0.67556148     1.65780
Fe366      Fe  0.32802335  0.88425643  0.61913102     1.73250
Fe367      Fe  0.37859397  0.82894351  0.61690913     1.54410
O368        O  0.41926290  0.85049784  0.61510622    -0.82100
O369        O  0.30921658  0.84466396  0.60169063    -0.80400
O370        O  0.42201779  0.86764356  0.66182594    -0.84600
O371        O  0.37741274  0.83398011  0.69491146    -0.79460
O372        O  0.36990941  0.84471691  0.57493376    -0.81230
O373        O  0.30296273  0.88232172  0.65810706    -0.83980
C374        C  0.39209064  0.81228454  0.68343393     0.96790
C375        C  0.43386806  0.86209186  0.63665311     1.04230
O376        O  0.36125517  0.86291734  0.63776576    -1.12960
O377        O  0.34351840  0.92567673  0.63204239    -0.75390
O378        O  0.38456506  0.91901249  0.65949932    -0.78880
O379        O  0.39201820  0.80797309  0.65539129    -0.79570
C380        C  0.36650991  0.93562954  0.64535526     0.95690
O381        O  0.33785787  0.88998532  0.69306545    -0.77530
O382        O  0.35111924  0.89028217  0.57948073    -0.82720
C383        C  0.31613018  0.81677602  0.60161868     0.98310
C384        C  0.36333054  0.86995194  0.56385880     1.04230
O385        O  0.33818469  0.80686549  0.61667939    -0.78360
C386        C  0.31133406  0.89359747  0.68304968     1.02530
C387        C  0.74750448  0.77277700  0.50110177     0.00140
C388        C  0.76860703  0.75040739  0.50312301     0.00140
C389        C  0.23115507  0.49960698  0.74701913     0.00140
C390        C  0.25129698  0.50079286  0.77028181     0.00140
C391        C  0.50144736  0.24858115  0.73264314     0.00140
C392        C  0.50048648  0.27079297  0.75394665     0.00140
Fe393      Fe  0.61765339  0.67156109  0.11852764     1.65780
Fe394      Fe  0.61744246  0.62189656  0.17516868     1.73250
Fe395      Fe  0.66807898  0.61566839  0.11877646     1.54410
O396        O  0.64538254  0.61094186  0.07855417    -0.82100
O397        O  0.65833300  0.60727768  0.19180213    -0.80400
O398        O  0.62601109  0.65650386  0.07598227    -0.84600
O399        O  0.65846131  0.69356395  0.11784307    -0.79460
O400        O  0.65240552  0.57384756  0.13097426    -0.81230
O401        O  0.62091551  0.66333920  0.19598027    -0.83980
C402        C  0.68047718  0.68358423  0.10261676     0.96790
C403        C  0.63381081  0.63212085  0.06355567     1.04230
O404        O  0.63496237  0.63666669  0.13792434    -1.12960
O405        O  0.57429756  0.63207425  0.16236470    -0.75390
O406        O  0.57702544  0.65022916  0.11617600    -0.78880
O407        O  0.68687513  0.65555706  0.10240539    -0.79570
C408        C  0.56246009  0.63799679  0.13725883     0.95690
O409        O  0.60451469  0.69154756  0.15856131    -0.77530
O410        O  0.61081187  0.57988140  0.15754415    -0.82720
C411        C  0.68514798  0.60511523  0.18238825     0.98310
C412        C  0.62903742  0.56347813  0.14327710     1.04230
O413        O  0.69340219  0.61678695  0.15768518    -0.78360
C414        C  0.60656535  0.68610828  0.18641914     1.02530
Fe415      Fe  0.61712484  0.67411680  0.87830436     1.65780
Fe416      Fe  0.66873746  0.61864636  0.87913742     1.73250
Fe417      Fe  0.61947838  0.62479731  0.82113119     1.54410
O418        O  0.57630909  0.63387570  0.83279296    -0.82100
O419        O  0.69463933  0.61791736  0.84057967    -0.80400
O420        O  0.57579134  0.65323762  0.87862983    -0.84600
O421        O  0.60564022  0.69411064  0.83846668    -0.79460
O422        O  0.61324955  0.58264121  0.83824095    -0.81230
O423        O  0.68773920  0.65889884  0.89418501    -0.83980
C424        C  0.60736306  0.68892333  0.81057940     0.96790
C425        C  0.56253745  0.64154981  0.85627450     1.04230
O426        O  0.63567419  0.63941492  0.85920224    -1.12960
O427        O  0.64636394  0.61531376  0.91953372    -0.75390
O428        O  0.62389644  0.65939219  0.92089265    -0.78880
O429        O  0.62218969  0.66659456  0.80065931    -0.79570
C430        C  0.63322380  0.63609661  0.93385859     0.95690
O431        O  0.65762293  0.69652807  0.88049115    -0.77530
O432        O  0.65257216  0.57658600  0.86833301    -0.82720
C433        C  0.68672552  0.60747410  0.81515812     0.98310
C434        C  0.63010436  0.56634494  0.85418201     1.04230
O435        O  0.66043173  0.61085993  0.80496388    -0.78360
C436        C  0.68072371  0.68672661  0.89418903     1.02530
Fe437      Fe  0.32674615  0.62285871  0.11469600     1.65780
Fe438      Fe  0.37984437  0.61421173  0.16808029     1.73250
Fe439      Fe  0.38165893  0.67461209  0.12239729     1.54420
O440        O  0.38569669  0.65876943  0.07976205    -0.82100
O441        O  0.39624891  0.65218515  0.19061229    -0.80400
O442        O  0.34213386  0.63546569  0.07297628    -0.84600
O443        O  0.30543498  0.66378225  0.11940298    -0.79460
O444        O  0.42357702  0.65803143  0.12972976    -0.81230
O445        O  0.33991379  0.61416341  0.19157108    -0.83980
C446        C  0.31489898  0.68763084  0.10684160     0.96790
C447        C  0.36650896  0.64624558  0.06312871     1.04230
O448        O  0.36231086  0.63750257  0.13541470    -1.12960
O449        O  0.36848080  0.57307044  0.14993983    -0.75390
O450        O  0.34505954  0.58128077  0.10678361    -0.78880
O451        O  0.34206162  0.69564363  0.10946261    -0.79570
C452        C  0.35753597  0.56388595  0.12537653     0.95690
O453        O  0.30813718  0.60600216  0.15397439    -0.77530
O454        O  0.42005827  0.61105492  0.14580130    -0.82720
C455        C  0.39641732  0.68051980  0.18639014     0.98310
C456        C  0.43504085  0.63260482  0.13484740     1.04230
O457        O  0.38145477  0.69262721  0.16526650    -0.78360
C458        C  0.31563696  0.60298404  0.18134741     1.02530
Fe459      Fe  0.32863777  0.62219648  0.88455714     1.65780
Fe460      Fe  0.38383464  0.67334207  0.87839353     1.73250
Fe461      Fe  0.37814507  0.61672265  0.82769528     1.54420
O462        O  0.36844989  0.57471464  0.84385060    -0.82100
O463        O  0.38166700  0.69432371  0.83715944    -0.80400
O464        O  0.34826563  0.58072693  0.88900777    -0.84600
O465        O  0.30811981  0.60734774  0.84574041    -0.79460
O466        O  0.41966946  0.61226288  0.84669977    -0.81230
O467        O  0.34488815  0.69352196  0.89385621    -0.83980
C468        C  0.31350410  0.60529245  0.81781162     0.96790
C469        C  0.35997789  0.56449772  0.86886204     1.04230
O470        O  0.36312972  0.63782268  0.86312895    -1.12960
O471        O  0.38943399  0.65449181  0.91986598    -0.75390
O472        O  0.34513791  0.63275777  0.92604314    -0.78880
O473        O  0.33675135  0.61728291  0.80638343    -0.79570
C474        C  0.36992381  0.64198371  0.93612756     0.95690
O475        O  0.30693620  0.66323148  0.88351423    -0.77530
O476        O  0.42538599  0.65731583  0.86791579    -0.82720
C477        C  0.39500804  0.68379831  0.81423594     0.98310
C478        C  0.43558841  0.63241805  0.85883078     1.04230
O479        O  0.39296244  0.65605142  0.80730462    -0.78360
C480        C  0.31747142  0.68650710  0.89647634     1.02530
Fe481      Fe  0.67053109  0.38783744  0.88068373     1.65780
Fe482      Fe  0.62027131  0.33171234  0.88883374     1.73250
Fe483      Fe  0.61499782  0.37858113  0.82999133     1.54410
O484        O  0.60976137  0.42156041  0.84608510    -0.82100
O485        O  0.60375021  0.30959064  0.85110647    -0.80400
O486        O  0.65349440  0.42899848  0.86892368    -0.84600
O487        O  0.69206087  0.38558359  0.83972054    -0.79460
O488        O  0.57345475  0.36876858  0.84684099    -0.81230
O489        O  0.66102144  0.30988732  0.88715863    -0.83980
C490        C  0.68098703  0.39661565  0.81587886     0.96790
C491        C  0.62887465  0.43851526  0.85856680     1.04230
O492        O  0.63572214  0.36581044  0.86617008    -1.12960
O493        O  0.63185420  0.34911887  0.92991542    -0.75390
O494        O  0.65173063  0.39413566  0.92238521    -0.78880
O495        O  0.65369496  0.39248975  0.80891003    -0.79570
C496        C  0.64036328  0.37455257  0.93947400     0.95690
O497        O  0.69090449  0.34890210  0.89613280    -0.77530
O498        O  0.57947985  0.35245768  0.89345602    -0.82720
C499        C  0.60270206  0.31443848  0.82309911     0.98310
C500        C  0.56330236  0.36307173  0.87266069     1.04230
O501        O  0.61735104  0.33608036  0.81163549    -0.78360
C502        C  0.68454914  0.32106509  0.89883222     1.02530
Fe503      Fe  0.61892035  0.37529768  0.17950781     1.65780
Fe504      Fe  0.67122956  0.38507053  0.12485243     1.73250
Fe505      Fe  0.61922122  0.33011649  0.11906469     1.54420
O506        O  0.60563699  0.30748907  0.15690164    -0.82100
O507        O  0.65091160  0.39135404  0.08386103    -0.80400
O508        O  0.62045856  0.33231670  0.19713336    -0.84600
O509        O  0.57645042  0.36707285  0.16499083    -0.79460
O510        O  0.65967933  0.30789765  0.11806195    -0.81230
O511        O  0.65414257  0.42610153  0.13713829    -0.83980
C512        C  0.56349805  0.36120268  0.14055768     0.96790
C513        C  0.60537252  0.31127398  0.18508338     1.04230
O514        O  0.63699116  0.36325705  0.14144925    -1.12960
O515        O  0.69493824  0.38362396  0.16472422    -0.75390
O516        O  0.65907104  0.38756131  0.19885484    -0.78880
O517        O  0.57778239  0.35103767  0.11807769    -0.79570
C518        C  0.68504212  0.39417411  0.18931177     0.95690
O519        O  0.61339813  0.41866387  0.16480019    -0.77530
O520        O  0.69111388  0.34575821  0.10835853    -0.82720
C521        C  0.63754397  0.37242183  0.06743381     0.98310
C522        C  0.68352522  0.31814711  0.10623988     1.04230
O523        O  0.62811307  0.34769734  0.07756858    -0.78360
C524        C  0.63061522  0.43558720  0.14994953     1.02530
Fe525      Fe  0.38379367  0.38120653  0.83141804     1.65780
Fe526      Fe  0.37932420  0.32490020  0.88187571     1.73250
Fe527      Fe  0.32714630  0.38012813  0.88133109     1.54420
O528        O  0.34149325  0.42299607  0.87452185    -0.82100
O529        O  0.33891030  0.30234531  0.87959684    -0.80400
O530        O  0.38652922  0.42165284  0.85416088    -0.84600
O531        O  0.34451058  0.39614661  0.81206246    -0.79460
O532        O  0.34652857  0.38205806  0.92318659    -0.81230
O533        O  0.39434305  0.30817460  0.84128296    -0.83980
C534        C  0.31674366  0.39711941  0.81786274     0.96790
C535        C  0.36533627  0.43593815  0.86655132     1.04230
O536        O  0.36292034  0.36159060  0.86430689    -1.12960
O537        O  0.42006313  0.34465520  0.88873246    -0.75390
O538        O  0.42579486  0.37107523  0.84717802    -0.78880
O539        O  0.30576965  0.38244463  0.83991156    -0.79570
C540        C  0.43613466  0.35973638  0.87106449     0.95690
O541        O  0.38398430  0.34206199  0.80622444    -0.77530
O542        O  0.36911851  0.33754853  0.92412818    -0.82720
C543        C  0.31607915  0.31161842  0.89397690     0.98310
C544        C  0.35958753  0.36093418  0.93698338     1.04230
O545        O  0.30818878  0.33916071  0.89330926    -0.78360
C546        C  0.39601427  0.31740812  0.81443528     1.02530
Fe547      Fe  0.37949693  0.38498414  0.16879752     1.65780
Fe548      Fe  0.32625563  0.37759510  0.11600574     1.73250
Fe549      Fe  0.38189003  0.32598098  0.12129577     1.54410
O550        O  0.42436093  0.34165423  0.12953888    -0.82100
O551        O  0.30505610  0.33665499  0.12061558    -0.80400
O552        O  0.41996499  0.38823541  0.14737114    -0.84600
O553        O  0.39461432  0.34653326  0.18994151    -0.79460
O554        O  0.38548777  0.34379363  0.07923094    -0.81230
O555        O  0.30800249  0.39393518  0.15537041    -0.83980
C556        C  0.39550416  0.31824483  0.18563618     0.96790
C557        C  0.43538740  0.36691303  0.13656675     1.04230
O558        O  0.36225103  0.36257093  0.13567156    -1.12960
O559        O  0.34476810  0.41908886  0.10844355    -0.75390
O560        O  0.36868464  0.42655348  0.15148611    -0.78880
O561        O  0.38199577  0.30621076  0.16346148    -0.79570
C562        C  0.35822921  0.43600901  0.12685253     0.95690
O563        O  0.33981585  0.38424253  0.19224417    -0.77530
O564        O  0.34081126  0.36564225  0.07419821    -0.82720
C565        C  0.31433967  0.31325162  0.10716117     0.98310
C566        C  0.36527927  0.35609201  0.06363189     1.04230
O567        O  0.34183867  0.30568316  0.10807450    -0.78360
C568        C  0.31580163  0.39613508  0.18270632     1.02530
C569        C  0.73674922  0.50089717  0.75993339     0.00140
C570        C  0.75588189  0.49964321  0.73597651     0.00140
C571        C  0.99974560  0.26466472  0.25582925     0.00140
C572        C  0.99896026  0.24107675  0.23592577     0.00140
C573        C  0.74453988  0.23526797  0.50000295     0.00140
C574        C  0.76616187  0.25720456  0.49842251     0.00140
C575        C  0.75706440  0.50148469  0.26602955     0.00140
C576        C  0.73603570  0.50266140  0.24353702     0.00140
Fe577      Fe  0.11687449  0.67232940  0.37864085     1.65780
Fe578      Fe  0.17097186  0.61947876  0.38248703     1.73250
Fe579      Fe  0.12462706  0.61968890  0.32340875     1.54420
O580        O  0.08146986  0.61535716  0.33890330    -0.82100
O581        O  0.19208411  0.60498029  0.34438796    -0.80400
O582        O  0.07529299  0.65563749  0.36790210    -0.84600
O583        O  0.11682691  0.69614758  0.33872722    -0.79460
O584        O  0.13201763  0.57667254  0.33778742    -0.81230
O585        O  0.19421306  0.65971611  0.38255393    -0.83980
C586        C  0.10650919  0.68607952  0.31406765     0.96790
C587        C  0.06511338  0.63253644  0.35456167     1.04230
O588        O  0.13770217  0.63779095  0.36113854    -1.12960
O589        O  0.15521427  0.62874699  0.42420362    -0.75390
O590        O  0.11162542  0.65196200  0.41988411    -0.78880
O591        O  0.11347072  0.66017582  0.30426059    -0.79570
C592        C  0.13133251  0.63879868  0.43531777     0.95690
O593        O  0.15732205  0.69183348  0.39330338    -0.77530
O594        O  0.14868068  0.57893268  0.38447840    -0.82720
C595        C  0.18828870  0.60550746  0.31628887     0.98310
C596        C  0.13741676  0.56435890  0.36277109     1.04230
O597        O  0.16700804  0.62050855  0.30479553    -0.78360
C598        C  0.18498173  0.68435214  0.39400429     1.02530
Fe599      Fe  0.82563051  0.62569750  0.38264752     1.65780
Fe600      Fe  0.88577796  0.67097814  0.38125917     1.73250
Fe601      Fe  0.87915684  0.61688771  0.32857236     1.54410
O602        O  0.86833310  0.57510261  0.34490778    -0.82100
O603        O  0.88438605  0.69419670  0.34149498    -0.80400
O604        O  0.83976898  0.58181775  0.38535455    -0.84600
O605        O  0.80492093  0.61564275  0.34256867    -0.79460
O606        O  0.92079452  0.61070301  0.34742379    -0.81230
O607        O  0.84874420  0.69290039  0.39750660    -0.83980
C608        C  0.81383859  0.60869778  0.31638825     0.96790
C609        C  0.85501508  0.56532271  0.36795465     1.04230
O610        O  0.86311599  0.63801606  0.36365849    -1.12960
O611        O  0.88895654  0.64868383  0.42155350    -0.75390
O612        O  0.84217271  0.63207718  0.42488618    -0.78880
O613        O  0.83861735  0.61825447  0.30610103    -0.79570
C614        C  0.86733285  0.63804679  0.43658415     0.95690
O615        O  0.80771474  0.66882539  0.38421206    -0.77530
O616        O  0.92694476  0.65445729  0.36996835    -0.82720
C617        C  0.89636376  0.68452055  0.31750751     0.98310
C618        C  0.93724621  0.62999392  0.36013965     1.04230
O619        O  0.89436139  0.65700033  0.30935045    -0.78360
C620        C  0.82061578  0.68972924  0.39880411     1.02530
Fe621      Fe  0.87408890  0.67492804  0.61781932     1.65780
Fe622      Fe  0.82494069  0.61754806  0.62073152     1.73250
Fe623      Fe  0.88149512  0.62026837  0.67000896     1.54420
O624        O  0.92260742  0.63267237  0.65411001    -0.82100
O625        O  0.80415956  0.61761462  0.66207835    -0.80400
O626        O  0.91571270  0.65659780  0.61097569    -0.84600
O627        O  0.88966070  0.69299571  0.65797687    -0.79460
O628        O  0.88676638  0.58019695  0.64737589    -0.81230
O629        O  0.80444578  0.65709650  0.60747657    -0.83980
C630        C  0.89183357  0.68400307  0.68494876     0.96790
C631        C  0.93226816  0.64299329  0.62959331     1.04230
O632        O  0.85981620  0.63805889  0.63668440    -1.12960
O633        O  0.84469024  0.61463363  0.57923656    -0.75390
O634        O  0.86309053  0.66087571  0.57537370    -0.78880
O635        O  0.87929662  0.65990926  0.69391941    -0.79570
C636        C  0.85619160  0.63567633  0.56397816     0.95690
O637        O  0.83267952  0.69562018  0.62108815    -0.77530
O638        O  0.84085910  0.57517536  0.62938095    -0.82720
C639        C  0.81504203  0.60346112  0.68441568     0.98310
C640        C  0.86637891  0.56449827  0.63530264     1.04230
O641        O  0.84296269  0.60340042  0.68987397    -0.78360
C642        C  0.81000201  0.68506986  0.60725678     1.02530
Fe643      Fe  0.11829633  0.67346609  0.61509323     1.65780
Fe644      Fe  0.11093379  0.62065631  0.66882492     1.73250
Fe645      Fe  0.16608432  0.61438396  0.61745654     1.54420
O646        O  0.14449928  0.61081747  0.57687557    -0.82100
O647        O  0.14996059  0.60383325  0.68803815    -0.80400
O648        O  0.12584365  0.65710365  0.57332604    -0.84600
O649        O  0.16046024  0.69275303  0.61510716    -0.79460
O650        O  0.14903584  0.57319832  0.62771753    -0.81230
O651        O  0.11421949  0.66096327  0.69162127    -0.83980
C652        C  0.18231053  0.68132813  0.60072864     0.96790
C653        C  0.13261863  0.63193490  0.56213017     1.04230
O654        O  0.13234145  0.63668669  0.63439903    -1.12960
O655        O  0.06926944  0.63303948  0.65347240    -0.75390
O656        O  0.07588598  0.65722126  0.61054273    -0.78880
O657        O  0.18776137  0.65316253  0.60175039    -0.79570
C658        C  0.05930058  0.64440760  0.62944253     0.95690
O659        O  0.10570459  0.69365548  0.65507575    -0.77530
O660        O  0.10427366  0.57982690  0.64837422    -0.82720
C661        C  0.17772876  0.60112099  0.68196381     0.98310
C662        C  0.12426666  0.56332660  0.63696531     1.04230
O663        O  0.18888970  0.61314150  0.65842080    -0.78360
C664        C  0.10268930  0.68534900  0.68220642     1.02530
Fe665      Fe  0.88187437  0.32627975  0.37890158     1.65780
Fe666      Fe  0.82718592  0.37890862  0.38436499     1.73250
Fe667      Fe  0.88266496  0.38676794  0.33388562     1.54420
O668        O  0.92162512  0.38880947  0.35855443    -0.82100
O669        O  0.80984457  0.39536960  0.34399125    -0.80400
O670        O  0.92465243  0.34085880  0.37137035    -0.84600
O671        O  0.88192907  0.30771945  0.33615464    -0.79460
O672        O  0.87123934  0.42810855  0.35088820    -0.81230
O673        O  0.80530023  0.33828371  0.37988184    -0.83980
C674        C  0.89730252  0.31986521  0.31535074     0.96790
C675        C  0.93630305  0.36655703  0.36855383     1.04230
O676        O  0.86323555  0.36363675  0.36516905    -1.12960
O677        O  0.84180969  0.36672283  0.42652985    -0.75390
O678        O  0.88551643  0.34326182  0.42152601    -0.78880
O679        O  0.89833194  0.34836581  0.31256778    -0.79570
C680        C  0.86616985  0.35683765  0.43730043     0.95690
O681        O  0.84168412  0.30646386  0.39143998    -0.77530
O682        O  0.84536116  0.42046183  0.39255022    -0.82720
C683        C  0.81926308  0.39898153  0.31720197     0.98310
C684        C  0.85828682  0.43763926  0.37416926     1.04230
O685        O  0.84404496  0.38791509  0.30827649    -0.78360
C686        C  0.81443217  0.31457132  0.39284313     1.02530
Fe687      Fe  0.11590224  0.37718444  0.32781965     1.65780
Fe688      Fe  0.17118396  0.38436737  0.37931952     1.73250
Fe689      Fe  0.11986258  0.32882074  0.38626532     1.54410
O690        O  0.07865931  0.34939696  0.38915257    -0.82100
O691        O  0.19126953  0.34543108  0.39443557    -0.80400
O692        O  0.07396163  0.36872904  0.34367555    -0.84600
O693        O  0.11612534  0.33492332  0.30825936    -0.79460
O694        O  0.12871474  0.34637379  0.42751993    -0.81230
O695        O  0.19305712  0.38282226  0.33839703    -0.83980
C696        C  0.10312435  0.31236105  0.32013079     0.96790
C697        C  0.06329554  0.36218717  0.36897903     1.04230
O698        O  0.13622605  0.36292613  0.36399717    -1.12960
O699        O  0.15512901  0.42592152  0.36863784    -0.75390
O700        O  0.11172184  0.41994696  0.34506335    -0.78880
O701        O  0.10589384  0.30674185  0.34786592    -0.79570
C702        C  0.13088413  0.43622211  0.35829875     0.95690
O703        O  0.15517187  0.39038987  0.30715728    -0.77530
O704        O  0.15205879  0.38997821  0.42092326    -0.82720
C705        C  0.18474862  0.31785757  0.39841238     0.98310
C706        C  0.13831513  0.37121761  0.43720038     1.04230
O707        O  0.16076827  0.30650295  0.38773808    -0.78360
C708        C  0.18248377  0.39402860  0.31437233     1.02530
Fe709      Fe  0.83014617  0.38089943  0.61642390     1.65780
Fe710      Fe  0.88513411  0.32877970  0.62344877     1.73250
Fe711      Fe  0.87650610  0.38304734  0.67590925     1.54420
O712        O  0.86750744  0.42553641  0.66085099    -0.82100
O713        O  0.88339637  0.30617105  0.66381315    -0.80400
O714        O  0.85215932  0.42159933  0.61389771    -0.84600
O715        O  0.80806449  0.39610471  0.65508001    -0.79460
O716        O  0.91921413  0.38846411  0.65997727    -0.81230
O717        O  0.84601666  0.30900074  0.60812317    -0.83980
C718        C  0.81291898  0.39541881  0.68324468     0.96790
C719        C  0.86336556  0.43673608  0.63525233     1.04230
O720        O  0.86352474  0.36359574  0.63889839    -1.12960
O721        O  0.89104926  0.34778585  0.58194001    -0.75390
O722        O  0.84752271  0.37063705  0.57514409    -0.78880
O723        O  0.83440129  0.38029238  0.69414137    -0.79570
C724        C  0.87184624  0.36008481  0.56515691     0.95690
O725        O  0.80735472  0.34009961  0.61473796    -0.77530
O726        O  0.92641912  0.34571556  0.63481703    -0.82720
C727        C  0.89454422  0.31670893  0.68781994     0.98310
C728        C  0.93589263  0.37010371  0.64609153     1.04230
O729        O  0.88978771  0.34365702  0.69591733    -0.78360
C730        C  0.81872392  0.31617916  0.60357613     1.02530
Fe731      Fe  0.17276308  0.38178347  0.62227525     1.65780
Fe732      Fe  0.12198928  0.38043795  0.67847550     1.73250
Fe733      Fe  0.11410007  0.33403725  0.61833939     1.54420
O734        O  0.11352043  0.35804394  0.57841882    -0.82100
O735        O  0.10741756  0.33900313  0.69369216    -0.80400
O736        O  0.15904050  0.37687848  0.57942128    -0.84600
O737        O  0.19293744  0.33968294  0.61844453    -0.79460
O738        O  0.07297549  0.35188662  0.62854950    -0.81230
O739        O  0.16343767  0.37603383  0.69883677    -0.83980
C740        C  0.18104230  0.31779466  0.60400037     0.96790
C741        C  0.13588225  0.36962067  0.56526974     1.04230
O742        O  0.13645583  0.36484018  0.64007093    -1.12960
O743        O  0.13181435  0.42385787  0.66721346    -0.75390
O744        O  0.15349645  0.42394890  0.62228425    -0.78880
O745        O  0.15297326  0.31332997  0.60430007    -0.79570
C746        C  0.14034231  0.43724147  0.64373341     0.95690
O747        O  0.19285682  0.39229507  0.66268978    -0.77530
O748        O  0.07975603  0.38810404  0.66229015    -0.82720
C749        C  0.10191779  0.31349595  0.68193215     0.98310
C750        C  0.06315165  0.37293289  0.64499508     1.04230
O751        O  0.11094474  0.30656460  0.65576362    -0.78360
C752        C  0.18597203  0.39113307  0.69021680     1.02530
C753        C  0.98325815  0.38348492  0.67061334    -0.20730
C754        C  0.96798987  0.37632378  0.64417462    -0.07300
C755        C  0.98397430  0.37251220  0.61718585     0.13570
C756        C  0.01519496  0.37387046  0.61779936    -0.20780
C757        C  0.03071657  0.37860271  0.64472000    -0.07300
C758        C  0.01453418  0.38438438  0.67137953     0.13560
C759        C  0.02984521  0.38945516  0.70107595    -0.24130
H760        H  0.97070623  0.38648503  0.69116251     0.14850
H761        H  0.02763674  0.36992200  0.59734177     0.14880
C762        C  0.96831087  0.36689333  0.58775774    -0.24080
H763        H  0.01352908  0.39246925  0.71955983     0.05090
H764        H  0.04369753  0.41012207  0.70007767     0.08320
H765        H  0.04413212  0.36981654  0.70666424     0.08320
H766        H  0.95177829  0.38501982  0.58348914     0.08300
H767        H  0.95676767  0.34484473  0.58813164     0.08300
H768        H  0.98428340  0.36648594  0.56873453     0.05080
C769        C  0.16245191  0.38054230  0.48500456    -0.20730
C770        C  0.13581639  0.37665466  0.46935962    -0.07300
C771        C  0.10866255  0.37292693  0.48501225     0.13570
C772        C  0.10910083  0.37207869  0.51640563    -0.20780
C773        C  0.13614093  0.37408371  0.53233895    -0.07300
C774        C  0.16333051  0.37868694  0.51616114     0.13560
C775        C  0.19389131  0.37993469  0.53068940    -0.24130
H776        H  0.18312935  0.38285979  0.47252782     0.14850
H777        H  0.08832754  0.36890765  0.52845907     0.14880
C778        C  0.07929625  0.36980562  0.46866983    -0.24080
H779        H  0.21215079  0.38215884  0.51399240     0.05090
H780        H  0.19818408  0.35886694  0.54328605     0.08320
H781        H  0.19547509  0.39975430  0.54573495     0.08320
H782        H  0.07912280  0.34895314  0.45502395     0.08300
H783        H  0.07583915  0.38950795  0.45382751     0.08300
H784        H  0.06014492  0.36860310  0.48443235     0.05080
C785        C  0.88730684  0.33768417  0.48481771    -0.20730
C786        C  0.87157744  0.36037316  0.46969046    -0.07300
C787        C  0.86063594  0.38539955  0.48596655     0.13570
C788        C  0.86334017  0.38559252  0.51712347    -0.20780
C789        C  0.87660782  0.36157912  0.53252050    -0.07300
C790        C  0.89001424  0.33792630  0.51609084     0.13560
C791        C  0.90593023  0.31219334  0.53116926    -0.24130
H792        H  0.89634063  0.31890966  0.47223650     0.14850
H793        H  0.85389578  0.40416460  0.52972041     0.14880
C794        C  0.84624080  0.41213218  0.47093680    -0.24080
H795        H  0.91430216  0.29544174  0.51472066     0.05090
H796        H  0.89050574  0.30040320  0.54659476     0.08320
H797        H  0.92547627  0.32082403  0.54387243     0.08320
H798        H  0.82455420  0.40565573  0.46073461     0.08300
H799        H  0.86144391  0.42123220  0.45353804     0.08300
H800        H  0.84154316  0.43052915  0.48711397     0.05080
C801        C  0.98459149  0.39163966  0.35926467    -0.20730
C802        C  0.96856111  0.36955147  0.37474643    -0.07300
C803        C  0.98419344  0.34906705  0.39344754     0.13570
C804        C  0.01543576  0.34864652  0.39271712    -0.20780
C805        C  0.03131704  0.36814254  0.37402087    -0.07300
C806        C  0.01582998  0.39134736  0.35872075     0.13560
C807        C  0.03176781  0.41588914  0.34170858    -0.24130
H808        H  0.97269611  0.40815926  0.34599029     0.14850
H809        H  0.02738779  0.33173768  0.40545237     0.14880
C810        C  0.96846323  0.32736807  0.41408700    -0.24080
H811        H  0.01605974  0.43369662  0.33418155     0.05090
H812        H  0.04259770  0.40671404  0.32133311     0.08320
H813        H  0.04873010  0.42668671  0.35637167     0.08320
H814        H  0.95702519  0.30950480  0.40105886     0.08300
H815        H  0.95206868  0.33967085  0.42818302     0.08300
H816        H  0.98442759  0.31592757  0.42936582     0.05080
C817        C  0.12277594  0.48189122  0.61553601    -0.20730
C818        C  0.13445584  0.46960305  0.64202896    -0.07300
C819        C  0.13927077  0.48827846  0.66720513     0.13570
C820        C  0.13222478  0.51861012  0.66547118    -0.20780
C821        C  0.12160693  0.53099295  0.63892057    -0.07300
C822        C  0.11661731  0.51275973  0.61361733     0.13560
C823        C  0.10537051  0.52604602  0.58477035    -0.24130
H824        H  0.11879502  0.46744766  0.59636777     0.14850
H825        H  0.13707975  0.53325988  0.68432879     0.14880
C826        C  0.15422964  0.47706069  0.69510877    -0.24080
H827        H  0.10222417  0.50856570  0.56726062     0.05090
H828        H  0.12167537  0.54280259  0.57631477     0.08320
H829        H  0.08354359  0.53728797  0.58868031     0.08320
H830        H  0.17572190  0.46648628  0.68876628     0.08300
H831        H  0.13967843  0.46078821  0.70689768     0.08300
H832        H  0.15920314  0.49550503  0.71103684     0.05080
C833        C  0.97929206  0.66606909  0.61291814    -0.20730
C834        C  0.96443033  0.64067331  0.62390858    -0.07300
C835        C  0.98096887  0.61496518  0.63245122     0.13570
C836        C  0.01213820  0.61642248  0.63235380    -0.20780
C837        C  0.02702613  0.64275899  0.62387274    -0.07300
C838        C  0.01053182  0.66753409  0.61286970     0.13560
C839        C  0.02544216  0.69620365  0.60288144    -0.24130
H840        H  0.96641884  0.68556752  0.60613909     0.14850
H841        H  0.02500599  0.59719950  0.63990666     0.14880
C842        C  0.96606998  0.58596011  0.64166740    -0.24080
H843        H  0.00886891  0.71361759  0.59637804     0.05090
H844        H  0.03975348  0.69170839  0.58309138     0.08320
H845        H  0.03924767  0.70549810  0.62135774     0.08320
H846        H  0.95011444  0.57867506  0.62402247     0.08300
H847        H  0.95410136  0.58883018  0.66320483     0.08300
H848        H  0.98261115  0.56761046  0.64488686     0.05080
C849        C  0.88981251  0.51641324  0.64977458    -0.20730
C850        C  0.87117471  0.53212658  0.63007975    -0.07300
C851        C  0.85518111  0.51604696  0.60781497     0.13570
C852        C  0.85456371  0.48467263  0.60888720    -0.20780
C853        C  0.86995677  0.46899613  0.63125304    -0.07300
C854        C  0.88971934  0.48497216  0.65050791     0.13560
C855        C  0.91080786  0.46945581  0.67192340    -0.24130
H856        H  0.90320618  0.52872925  0.66590205     0.14850
H857        H  0.84075178  0.47249080  0.59302241     0.14880
C858        C  0.83924420  0.53158795  0.58247656    -0.24080
H859        H  0.92674029  0.48555238  0.68231872     0.05090
H860        H  0.92417082  0.45234370  0.65972012     0.08320
H861        H  0.89826895  0.45879076  0.69046260     0.08320
H862        H  0.85517487  0.54698956  0.57124736     0.08300
H863        H  0.81952040  0.54420375  0.59071053     0.08300
H864        H  0.83100994  0.51533850  0.56544524     0.05080
C865        C  0.84918169  0.61345219  0.48231498    -0.20730
C866        C  0.86983363  0.63329203  0.46917310    -0.07300
C867        C  0.88841354  0.65097095  0.48776767     0.13570
C868        C  0.88464472  0.64935409  0.51879896    -0.20780
C869        C  0.86197035  0.63169668  0.53170823    -0.07300
C870        C  0.84428690  0.61307015  0.51316733     0.13560
C871        C  0.81876920  0.59445761  0.52502807    -0.24130
H872        H  0.83524042  0.59946372  0.46812101     0.14850
H873        H  0.89863010  0.66323081  0.53305534     0.14880
C874        C  0.91089936  0.67292636  0.47540865    -0.24080
H875        H  0.80648588  0.58265176  0.50685487     0.05090
H876        H  0.80257115  0.60909998  0.53687398     0.08320
H877        H  0.82733133  0.57710662  0.54044915     0.08320
H878        H  0.89942831  0.68986438  0.46121588     0.08300
H879        H  0.92791576  0.66071841  0.46207913     0.08300
H880        H  0.92285071  0.68525336  0.49345940     0.05080
C881        C  0.82948454  0.51708412  0.37490983    -0.20730
C882        C  0.85639637  0.53303717  0.37397915    -0.07300
C883        C  0.88388901  0.51767034  0.37657090     0.13570
C884        C  0.88374601  0.48628591  0.37892158    -0.20780
C885        C  0.85682227  0.47017445  0.37845779    -0.07300
C886        C  0.82926991  0.48571213  0.37655963     0.13560
C887        C  0.79942103  0.47013079  0.37367826    -0.24130
H888        H  0.80853195  0.52912693  0.37266815     0.14850
H889        H  0.90474805  0.47413451  0.37989613     0.14880
C890        C  0.91329031  0.53424927  0.37676070    -0.24080
H891        H  0.78988188  0.47484005  0.35122860     0.05090
H892        H  0.80055644  0.44547239  0.37603733     0.08320
H893        H  0.78394030  0.47865837  0.39115485     0.08320
H894        H  0.91343151  0.55109407  0.39514066     0.08300
H895        H  0.91673665  0.54580941  0.35505187     0.08300
H896        H  0.93245125  0.51875053  0.38026046     0.05080
C897        C  0.10782565  0.61917419  0.48213765    -0.20730
C898        C  0.12889445  0.63767294  0.46792133    -0.07300
C899        C  0.15038346  0.65310241  0.48508981     0.13570
C900        C  0.15174350  0.64879841  0.51560679    -0.20780
C901        C  0.13136508  0.63025965  0.52985889    -0.07300
C902        C  0.10859670  0.61565686  0.51348922     0.13560
C903        C  0.08525679  0.59710416  0.52907519    -0.24130
H904        H  0.09125810  0.60738396  0.46884938     0.14850
H905        H  0.16856846  0.66056903  0.52869572     0.14880
C906        C  0.17231554  0.67406209  0.47128255    -0.24080
H907        H  0.06894615  0.58745173  0.51293827     0.05090
H908        H  0.07284559  0.61132601  0.54531350     0.08320
H909        H  0.09616080  0.57834722  0.54123424     0.08320
H910        H  0.16033394  0.69148792  0.45818732     0.08300
H911        H  0.18710246  0.66049066  0.45689451     0.08300
H912        H  0.18632512  0.68551999  0.48830641     0.05080
C913        C  0.98434034  0.61043298  0.33837984    -0.20730
C914        C  0.96984626  0.62524811  0.36202629    -0.07300
C915        C  0.98711014  0.63793401  0.38542861     0.13570
C916        C  0.01820848  0.63823689  0.38289713    -0.20780
C917        C  0.03273940  0.62618805  0.35774403    -0.07300
C918        C  0.01564555  0.61051357  0.33597836     0.13560
C919        C  0.02979199  0.59467735  0.30971158    -0.24130
H920        H  0.97107737  0.60008020  0.32084430     0.14850
H921        H  0.03125742  0.64889768  0.40041964     0.14880
C922        C  0.97316068  0.65110175  0.41329340    -0.24080
H923        H  0.01279769  0.58422477  0.29482487     0.05090
H924        H  0.04469878  0.57647319  0.31785340     0.08320
H925        H  0.04281879  0.61082723  0.29611109     0.08320
H926        H  0.95762526  0.63448454  0.42333212     0.08300
H927        H  0.96103554  0.67218775  0.40802396     0.08300
H928        H  0.99025391  0.65680921  0.43045103     0.05080
C929        C  0.13698839  0.48255474  0.38772067    -0.20730
C930        C  0.12602547  0.46869262  0.36164973    -0.07300
C931        C  0.11489020  0.48646996  0.33810621     0.13570
C932        C  0.11723580  0.51768581  0.34032382    -0.20780
C933        C  0.13103508  0.53170975  0.36513715    -0.07300
C934        C  0.13974497  0.51382588  0.38986963     0.13560
C935        C  0.15282046  0.52692591  0.41817621    -0.24130
H936        H  0.14483188  0.46863659  0.40603628     0.14850
H937        H  0.10938842  0.53107624  0.32165956     0.14880
C938        C  0.10232534  0.47286609  0.30980015    -0.24080
H939        H  0.15750766  0.50932592  0.43516488     0.05090
H940        H  0.13679554  0.54307782  0.42828399     0.08320
H941        H  0.17431180  0.53833417  0.41320281     0.08320
H942        H  0.08212985  0.45940966  0.31510374     0.08300
H943        H  0.11935875  0.45830154  0.29904086     0.08300
H944        H  0.09570519  0.49031528  0.29331166     0.05080
C945        C  0.80148634  0.46800284  0.27007322    -0.20730
C946        C  0.77096767  0.47217234  0.27608930    -0.07300
C947        C  0.75547509  0.44882361  0.29134562     0.13570
C948        C  0.77139607  0.42367614  0.30203332    -0.20780
C949        C  0.80236094  0.42053369  0.29772692    -0.07300
C950        C  0.81728650  0.44261329  0.28029508     0.13560
C951        C  0.85024042  0.44066973  0.27348781    -0.24130
H952        H  0.81327917  0.48520985  0.25763477     0.14850
H953        H  0.75965943  0.40698880  0.31522571     0.14880
C954        C  0.72256255  0.44981888  0.29815243    -0.24080
H955        H  0.85794591  0.45978147  0.25950577     0.05090
H956        H  0.85501502  0.41964923  0.26094476     0.08320
H957        H  0.86337617  0.44115764  0.29453506     0.08320
H958        H  0.71114261  0.43080968  0.28675851     0.08300
H959        H  0.71202276  0.47095532  0.29089713     0.08300
H960        H  0.71904724  0.44779480  0.32267955     0.05080
C961        C  0.78823454  0.54834381  0.25981638    -0.20730
C962        C  0.77044774  0.53007395  0.27842916    -0.07300
C963        C  0.76534833  0.53968419  0.30823172     0.13570
C964        C  0.77756515  0.56681075  0.31823945    -0.20780
C965        C  0.79646287  0.58462015  0.30034614    -0.07300
C966        C  0.80158635  0.57519785  0.27039528     0.13560
C967        C  0.82097402  0.59304002  0.24939286    -0.24130
H968        H  0.79223282  0.54112844  0.23698065     0.14850
H969        H  0.77335144  0.57308097  0.34131773     0.14880
C970        C  0.74686916  0.52256123  0.33059961    -0.24080
H971        H  0.82064467  0.58352622  0.22638145     0.05090
H972        H  0.84452470  0.59274568  0.25719681     0.08320
H973        H  0.81276707  0.61656384  0.24815727     0.08320
H974        H  0.73865754  0.50107159  0.32191794     0.08300
H975        H  0.72729612  0.53630325  0.33741940     0.08300
H976        H  0.76031299  0.51792667  0.35089877     0.05080
C977        C  0.76755178  0.29961620  0.46199162    -0.20730
C978        C  0.77576071  0.26990715  0.46862592    -0.07300
C979        C  0.79186596  0.25336861  0.44670093     0.13570
C980        C  0.80137629  0.26774054  0.42033557    -0.20780
C981        C  0.79499169  0.29814318  0.41462481    -0.07300
C982        C  0.77631975  0.31374389  0.43517637     0.13560
C983        C  0.76628131  0.34564378  0.42980778    -0.24130
H984        H  0.75425032  0.31195502  0.47814879     0.14850
H985        H  0.81548834  0.25546220  0.40482376     0.14880
C986        C  0.80104952  0.22111398  0.45083060    -0.24080
H987        H  0.75120594  0.35380589  0.44782118     0.05090
H988        H  0.75380273  0.34692463  0.40834603     0.08320
H989        H  0.78572792  0.36100224  0.42910817     0.08320
H990        H  0.79082223  0.20709403  0.43295821     0.08300
H991        H  0.79420307  0.21201524  0.47269388     0.08300
H992        H  0.82576217  0.21922598  0.44937026     0.05080
C993        C  0.82077785  0.28203631  0.55974208    -0.20730
C994        C  0.80257631  0.29831082  0.57982276    -0.07300
C995        C  0.77164559  0.30054960  0.57307134     0.13570
C996        C  0.76030881  0.28685071  0.54671176    -0.20780
C997        C  0.77903139  0.27144142  0.52637978    -0.07300
C998        C  0.80990981  0.26976349  0.53297136     0.13560
C999        C  0.83217374  0.25568260  0.51183042    -0.24130
H1000       H  0.84450220  0.28015662  0.56403599     0.14850
H1001       H  0.73674117  0.28888384  0.54150479     0.14880
C1002       C  0.75040050  0.31711352  0.59334801    -0.24080
H1003       H  0.85529478  0.25628823  0.52090908     0.05090
H1004       H  0.83258007  0.26824536  0.49044004     0.08320
H1005       H  0.82664840  0.23181229  0.50784637     0.08320
H1006       H  0.75581988  0.34144314  0.59360969     0.08300
H1007       H  0.75192869  0.30788494  0.61638264     0.08300
H1008       H  0.72686752  0.31481546  0.58569636     0.05080
C1009       C  0.07700582  0.30042874  0.27175126    -0.20730
C1010       C  0.08015370  0.29488576  0.30261093    -0.07300
C1011       C  0.05741760  0.27756470  0.31699317     0.13570
C1012       C  0.03226605  0.26810615  0.30066295    -0.20780
C1013       C  0.02859904  0.27465293  0.27025860    -0.07300
C1014       C  0.05159469  0.29096676  0.25554001     0.13560
C1015       C  0.04952605  0.30078989  0.22342853    -0.24130
H1016       H  0.09372450  0.31383964  0.26037496     0.14850
H1017       H  0.01473511  0.25582019  0.31205007     0.14880
C1018       C  0.05811026  0.26971407  0.34989731    -0.24080
H1019       H  0.05113490  0.32566663  0.22217226     0.05090
H1020       H  0.02823718  0.29421180  0.21292043     0.08320
H1021       H  0.06823897  0.29085064  0.21044000     0.08320
H1022       H  0.05641070  0.29041790  0.36369842     0.08300
H1023       H  0.07894843  0.25724881  0.35523269     0.08300
H1024       H  0.03909122  0.25508563  0.35645185     0.05080
C1025       C  0.93496549  0.31815892  0.27436013    -0.20730
C1026       C  0.91876484  0.30208717  0.29622248    -0.07300
C1027       C  0.92840591  0.27242287  0.30301526     0.13570
C1028       C  0.95423739  0.26070084  0.28898518    -0.20780
C1029       C  0.97113154  0.27760123  0.26842688    -0.07300
C1030       C  0.96133826  0.30694942  0.26143233     0.13560
C1031       C  0.97929602  0.32753460  0.24169880    -0.24130
H1032       H  0.92817574  0.34082802  0.26869673     0.14850
H1033       H  0.96221365  0.23864481  0.29531469     0.14880
C1034       C  0.91260055  0.25322298  0.32578896    -0.24080
H1035       H  0.96857455  0.34991016  0.23917457     0.05090
H1036       H  0.98152974  0.31787142  0.21905322     0.08320
H1037       H  0.00164604  0.33129068  0.25175505     0.08320
H1038       H  0.88873962  0.25060547  0.31941479     0.08300
H1039       H  0.91436679  0.26363018  0.34832361     0.08300
H1040       H  0.92253406  0.23037893  0.32724560     0.05080
C1041       C  0.79715647  0.46237008  0.73362472    -0.20730
C1042       C  0.76804587  0.47010066  0.72488735    -0.07300
C1043       C  0.75177247  0.44950498  0.70680840     0.13570
C1044       C  0.76626757  0.42389661  0.69520660    -0.20780
C1045       C  0.79607538  0.41710067  0.70250142    -0.07300
C1046       C  0.81105426  0.43586042  0.72351128     0.13560
C1047       C  0.84206745  0.42889949  0.73483244    -0.24130
H1048       H  0.80916409  0.47735935  0.74856075     0.14850
H1049       H  0.75439920  0.40953481  0.67955996     0.14880
C1050       C  0.71944640  0.45388095  0.69861784    -0.24080
H1051       H  0.84993308  0.44585918  0.75134024     0.05090
H1052       H  0.85826134  0.42870525  0.71615085     0.08320
H1053       H  0.84210324  0.40669196  0.74612923     0.08320
H1054       H  0.71008723  0.47478971  0.70797939     0.08300
H1055       H  0.70610188  0.43475782  0.70732326     0.08300
H1056       H  0.71700239  0.45470468  0.67389165     0.05080
C1057       C  0.78917937  0.54484976  0.74116626    -0.20730
C1058       C  0.76945313  0.52786905  0.72338777    -0.07300
C1059       C  0.76196154  0.53867445  0.69454725     0.13570
C1060       C  0.77495807  0.56533433  0.68395447    -0.20780
C1061       C  0.79608814  0.58139446  0.70087626    -0.07300
C1062       C  0.80270316  0.57131058  0.73030458     0.13560
C1063       C  0.82375518  0.58832948  0.75053764    -0.24130
H1064       H  0.79441841  0.53698953  0.76352663     0.14850
H1065       H  0.76997833  0.57256856  0.66132598     0.14880
C1066       C  0.74041334  0.52225039  0.67451520    -0.24080
H1067       H  0.82401588  0.57881532  0.77351808     0.05090
H1068       H  0.81656584  0.61216653  0.75217483     0.08320
H1069       H  0.84695066  0.58714998  0.74190858     0.08320
H1070       H  0.71840630  0.52026659  0.68570356     0.08300
H1071       H  0.74953897  0.49977881  0.66899444     0.08300
H1072       H  0.73674304  0.53424749  0.65303370     0.05080
C1073       C  0.35911614  0.33371405  0.98394349    -0.20730
C1074       C  0.36265589  0.36142985  0.96949100    -0.07300
C1075       C  0.37056855  0.38726943  0.98609014     0.13570
C1076       C  0.37290598  0.38486755  0.01730473    -0.20780
C1077       C  0.36863003  0.35708489  0.03143569    -0.07300
C1078       C  0.36253181  0.33114848  0.01461529     0.13560
C1079       C  0.35818487  0.30099527  0.02911397    -0.24130
H1080       H  0.35320941  0.31385633  0.97117257     0.14850
H1081       H  0.37758279  0.40464041  0.03074696     0.14880
C1082       C  0.37721567  0.41684042  0.97112699    -0.24080
H1083       H  0.35282793  0.28310142  0.01257094     0.05090
H1084       H  0.33941531  0.30268786  0.04493760     0.08320
H1085       H  0.37874997  0.29438363  0.04136889     0.08320
H1086       H  0.35693978  0.42539059  0.95961975     0.08300
H1087       H  0.39548116  0.41383312  0.95455878     0.08300
H1088       H  0.38446018  0.43412875  0.98758299     0.05080
C1089       C  0.68200867  0.44050276  0.21954242    -0.20730
C1090       C  0.70068974  0.41952736  0.20511720    -0.07300
C1091       C  0.73154632  0.42635969  0.20285940     0.13570
C1092       C  0.74257360  0.45340676  0.21554179    -0.20780
C1093       C  0.72347339  0.47438444  0.22962312    -0.07300
C1094       C  0.69250919  0.46796483  0.23062678     0.13560
C1095       C  0.66985168  0.48975900  0.24310336    -0.24130
H1096       H  0.65827946  0.43612557  0.22095105     0.14850
H1097       H  0.76620022  0.45850961  0.21397448     0.14880
C1098       C  0.75296991  0.40531850  0.18750393    -0.24080
H1099       H  0.64682117  0.48055918  0.24248126     0.05090
H1100       H  0.66962977  0.51062796  0.22960479     0.08320
H1101       H  0.67467943  0.49480719  0.26681014     0.08320
H1102       H  0.74748517  0.40366979  0.16332712     0.08300
H1103       H  0.75164187  0.38270995  0.19790897     0.08300
H1104       H  0.77642223  0.41332533  0.18937670     0.05080
C1105       C  0.48237953  0.37631151  0.16220467    -0.20730
C1106       C  0.46787052  0.37005596  0.13530503    -0.07300
C1107       C  0.48457770  0.36294759  0.10950986     0.13570
C1108       C  0.51582239  0.36120357  0.11162366    -0.20780
C1109       C  0.53061101  0.36586353  0.13907818    -0.07300
C1110       C  0.51338827  0.37406404  0.16476746     0.13560
C1111       C  0.52664770  0.37969236  0.19544354    -0.24130
H1112       H  0.46907017  0.38138509  0.18187863     0.14850
H1113       H  0.52861904  0.35547469  0.09183338     0.14880
C1114       C  0.46951170  0.35744550  0.07979408    -0.24080
H1115       H  0.50932666  0.38535329  0.21234543     0.05090
H1116       H  0.54232909  0.39901433  0.19459585     0.08320
H1117       H  0.53828649  0.35920526  0.20354984     0.08320
H1118       H  0.45582654  0.37732909  0.07361019     0.08300
H1119       H  0.45489498  0.33735072  0.08110029     0.08300
H1120       H  0.48604402  0.35349914  0.06166822     0.05080
C1121       C  0.67996845  0.44104538  0.78267822    -0.20730
C1122       C  0.69760928  0.41982842  0.79812229    -0.07300
C1123       C  0.72890229  0.42475351  0.79953303     0.13570
C1124       C  0.74116800  0.45083207  0.78628354    -0.20780
C1125       C  0.72303731  0.47253843  0.77210473    -0.07300
C1126       C  0.69200894  0.46701997  0.76990441     0.13560
C1127       C  0.67049181  0.48768360  0.75405184    -0.24130
H1128       H  0.65593172  0.43816983  0.78137855     0.14850
H1129       H  0.76497084  0.45494240  0.78804897     0.14880
C1130       C  0.74953000  0.40294009  0.81494030    -0.24080
H1131       H  0.65470471  0.49741292  0.77055101     0.05090
H1132       H  0.65760502  0.47471210  0.73713430     0.08320
H1133       H  0.68154647  0.50613904  0.74193832     0.08320
H1134       H  0.74642924  0.38009702  0.80537312     0.08300
H1135       H  0.74493530  0.40256654  0.83933370     0.08300
H1136       H  0.77336007  0.40931851  0.81201171     0.05080
C1137       C  0.51626652  0.34607393  0.89576108    -0.20730
C1138       C  0.53104346  0.36688729  0.87750595    -0.07300
C1139       C  0.51429749  0.38883785  0.86188277     0.13570
C1140       C  0.48316799  0.38707121  0.86222734    -0.20780
C1141       C  0.46830486  0.36388721  0.87746197    -0.07300
C1142       C  0.48502026  0.34419761  0.89600881     0.13560
C1143       C  0.47062912  0.32024465  0.91501276    -0.24130
H1144       H  0.52924028  0.32984641  0.90837176     0.14850
H1145       H  0.47040074  0.40322282  0.84930433     0.14880
C1146       C  0.52880649  0.41410859  0.84461938    -0.24080
H1147       H  0.48743322  0.30715774  0.92788282     0.05090
H1148       H  0.45818784  0.30416873  0.90061360     0.08320
H1149       H  0.45525788  0.33081009  0.93146093     0.08320
H1150       H  0.54033489  0.40532440  0.82445679     0.08300
H1151       H  0.54499086  0.42615095  0.85920226     0.08300
H1152       H  0.51207819  0.43077417  0.83670503     0.05080
C1153       C  0.61286960  0.36645941  0.98643803    -0.20730
C1154       C  0.63695086  0.38037033  0.97188232    -0.07300
C1155       C  0.65853907  0.39597420  0.98906251     0.13570
C1156       C  0.65689355  0.39479263  0.02043842    -0.20780
C1157       C  0.63447480  0.37815659  0.03494491    -0.07300
C1158       C  0.61130521  0.36501181  0.01765394     0.13560
C1159       C  0.58491976  0.34914972  0.03160654    -0.24130
H1160       H  0.59576472  0.35536273  0.97320103     0.14850
H1161       H  0.67433476  0.40534797  0.03364103     0.14880
C1162       C  0.68429671  0.41231804  0.97472021    -0.24080
H1163       H  0.56769278  0.34322658  0.01465406     0.05090
H1164       H  0.57420470  0.36399285  0.04848595     0.08320
H1165       H  0.59211066  0.32781477  0.04222213     0.08320
H1166       H  0.67568043  0.43075721  0.96039818     0.08300
H1167       H  0.69768841  0.39644225  0.96098857     0.08300
H1168       H  0.69941401  0.42250405  0.99167707     0.05080
C1169       C  0.39000038  0.51811008  0.86703801    -0.20730
C1170       C  0.36265233  0.53211186  0.87350302    -0.07300
C1171       C  0.33730057  0.51468201  0.88001472     0.13570
C1172       C  0.33964357  0.48348396  0.87886537    -0.20780
C1173       C  0.36657486  0.46900829  0.87083502    -0.07300
C1174       C  0.39243246  0.48668511  0.86572262     0.13560
C1175       C  0.42246114  0.47305190  0.85856978    -0.24130
H1176       H  0.40931796  0.53194700  0.86204544     0.14850
H1177       H  0.31961927  0.47046216  0.88303878     0.14880
C1178       C  0.30721266  0.52879371  0.88616989    -0.24080
H1179       H  0.44020222  0.49043904  0.85687851     0.05090
H1180       H  0.42152437  0.46116685  0.83672461     0.08320
H1181       H  0.42908206  0.45716049  0.87654773     0.08320
H1182       H  0.30044739  0.54308213  0.86696626     0.08300
H1183       H  0.30839323  0.54270020  0.90678997     0.08300
H1184       H  0.28949100  0.51163415  0.88949660     0.05080
C1185       C  0.36408283  0.61734552  0.01635412    -0.20730
C1186       C  0.37240664  0.64397270  0.03094622    -0.07300
C1187       C  0.38427662  0.66820002  0.01430060     0.13570
C1188       C  0.38545726  0.66585897  0.98311386    -0.20780
C1189       C  0.37476787  0.64016708  0.96844263    -0.07300
C1190       C  0.36517344  0.61505034  0.98520503     0.13560
C1191       C  0.35611934  0.58583325  0.97051479    -0.24130
H1192       H  0.35586736  0.59853449  0.02938901     0.14850
H1193       H  0.39289544  0.68495321  0.97002867     0.14880
C1194       C  0.39381078  0.69725010  0.02889307    -0.24080
H1195       H  0.35179020  0.56798245  0.98732385     0.05090
H1196       H  0.37431947  0.57786828  0.95558436     0.08320
H1197       H  0.33527611  0.58875225  0.95737942     0.08320
H1198       H  0.41301440  0.69316783  0.04410925     0.08300
H1199       H  0.37484880  0.70690733  0.04169820     0.08300
H1200       H  0.40097918  0.71419627  0.01213358     0.05080
C1201       C  0.38555138  0.51625602  0.12488817    -0.20730
C1202       C  0.35864461  0.53143709  0.11933013    -0.07300
C1203       C  0.33253781  0.51491256  0.11241455     0.13570
C1204       C  0.33370875  0.48344712  0.11279657    -0.20780
C1205       C  0.36008443  0.46834699  0.12063758    -0.07300
C1206       C  0.38662951  0.48482189  0.12564528     0.13560
C1207       C  0.41604992  0.46944016  0.13185842    -0.24130
H1208       H  0.40554306  0.52912347  0.12988341     0.14850
H1209       H  0.31343754  0.47061413  0.10900467     0.14880
C1210       C  0.30294736  0.53020147  0.10697880    -0.24080
H1211       H  0.43474954  0.48581693  0.13324298     0.05090
H1212       H  0.42115761  0.45330667  0.11356256     0.08320
H1213       H  0.41516645  0.45730750  0.15350432     0.08320
H1214       H  0.30442984  0.54472800  0.08686122     0.08300
H1215       H  0.29686819  0.54405220  0.12675437     0.08300
H1216       H  0.28467968  0.51371421  0.10316011     0.05080
C1217       C  0.72168386  0.56429927  0.81676297    -0.20730
C1218       C  0.70640321  0.58557832  0.79919869    -0.07300
C1219       C  0.70425370  0.58042479  0.76795605     0.13570
C1220       C  0.71492544  0.55325322  0.75579957    -0.20780
C1221       C  0.72774134  0.53068038  0.77381290    -0.07300
C1222       C  0.73212021  0.53698983  0.80462021     0.13560
C1223       C  0.74751948  0.51499918  0.82507778    -0.24130
H1224       H  0.72342286  0.56791122  0.84071108     0.14850
H1225       H  0.71200894  0.54910685  0.73211451     0.14880
C1226       C  0.69069220  0.60338706  0.74717128    -0.24080
H1227       H  0.75134097  0.52467634  0.84770285     0.05090
H1228       H  0.76960825  0.50868089  0.81564896     0.08320
H1229       H  0.73344787  0.49472220  0.82797852     0.08320
H1230       H  0.70177501  0.62546361  0.75057393     0.08300
H1231       H  0.66634405  0.60562212  0.75115484     0.08300
H1232       H  0.69362452  0.59691419  0.72331916     0.05080
C1233       C  0.51564263  0.63135286  0.88430614    -0.20730
C1234       C  0.52991145  0.63670676  0.85681111    -0.07300
C1235       C  0.51263140  0.63741901  0.83006806     0.13570
C1236       C  0.48190720  0.63302653  0.83161036    -0.20780
C1237       C  0.46780333  0.62894194  0.85900140    -0.07300
C1238       C  0.48452671  0.62773946  0.88570576     0.13560
C1239       C  0.46948178  0.62279092  0.91544097    -0.24130
H1240       H  0.52875468  0.63042148  0.90471013     0.14850
H1241       H  0.46842973  0.63479485  0.81144921     0.14880
C1242       C  0.52559238  0.64529850  0.80002007    -0.24080
H1243       H  0.48595240  0.62178085  0.93404635     0.05090
H1244       H  0.45696684  0.60123454  0.91493573     0.08320
H1245       H  0.45369014  0.64144620  0.92016624     0.08320
H1246       H  0.54105036  0.62745793  0.79218725     0.08300
H1247       H  0.53734496  0.66702093  0.80218692     0.08300
H1248       H  0.50811660  0.64792368  0.78255632     0.05080
C1249       C  0.63058272  0.51944489  0.88325340    -0.20730
C1250       C  0.62409091  0.53390983  0.85614323    -0.07300
C1251       C  0.61493524  0.51673836  0.83101857     0.13570
C1252       C  0.61461986  0.48534972  0.83320457    -0.20780
C1253       C  0.62351229  0.47096481  0.85962292    -0.07300
C1254       C  0.63046588  0.48812810  0.88534187     0.13560
C1255       C  0.63789443  0.47364643  0.91497386    -0.24130
H1256       H  0.63684053  0.53273171  0.90265472     0.14850
H1257       H  0.60924036  0.47193248  0.81362953     0.14880
C1258       C  0.60728547  0.53102256  0.80137369    -0.24080
H1259       H  0.64038810  0.49060506  0.93309168     0.05090
H1260       H  0.65932617  0.46122072  0.91346200     0.08320
H1261       H  0.61971790  0.45797955  0.92150281     0.08320
H1262       H  0.62655584  0.54442639  0.79317834     0.08300
H1263       H  0.58739694  0.54572477  0.80390287     0.08300
H1264       H  0.60183543  0.51394339  0.78403543     0.05080
C1265       C  0.69985326  0.58022368  0.22998451    -0.20730
C1266       C  0.70536926  0.58436686  0.19929771    -0.07300
C1267       C  0.72391624  0.56314916  0.18441522     0.13570
C1268       C  0.73424688  0.53760994  0.19995931    -0.20780
C1269       C  0.72661020  0.53226867  0.22995806    -0.07300
C1270       C  0.70975045  0.55451535  0.24536079     0.13560
C1271       C  0.69946801  0.55110735  0.27719647    -0.24130
H1272       H  0.68559438  0.59611589  0.24163736     0.14850
H1273       H  0.74760318  0.52099518  0.18826024     0.14880
C1274       C  0.73154394  0.56604114  0.15168227    -0.24080
H1275       H  0.67468800  0.55240685  0.27811691     0.05090
H1276       H  0.70893810  0.56952797  0.29106949     0.08320
H1277       H  0.70605769  0.52935888  0.28694838     0.08320
H1278       H  0.74337013  0.58760648  0.14773270     0.08300
H1279       H  0.71090981  0.56510296  0.13792282     0.08300
H1280       H  0.74641079  0.54758903  0.14397055     0.05080
C1281       C  0.62174500  0.65687993  0.01570681    -0.20730
C1282       C  0.63049047  0.63036452  0.03034852    -0.07300
C1283       C  0.63693089  0.60463023  0.01272174     0.13570
C1284       C  0.63675180  0.60696234  0.98133858    -0.20780
C1285       C  0.62969700  0.63408881  0.96689784    -0.07300
C1286       C  0.62103035  0.65921184  0.98462328     0.13560
C1287       C  0.61166362  0.68917845  0.97172792    -0.24130
H1288       H  0.61605674  0.67666988  0.02867032     0.14850
H1289       H  0.64242938  0.58740916  0.96799653     0.14880
C1290       C  0.64297158  0.57441540  0.02634740    -0.24080
H1291       H  0.60578814  0.70585107  0.98931060     0.05090
H1292       H  0.59158044  0.68632325  0.95737488     0.08320
H1293       H  0.63030420  0.69894840  0.95874492     0.08320
H1294       H  0.62311139  0.56786352  0.03954842     0.08300
H1295       H  0.66331828  0.57514835  0.04054713     0.08300
H1296       H  0.64654609  0.55677311  0.00908526     0.05080
C1297       C  0.61101765  0.51669048  0.16728601    -0.20730
C1298       C  0.62403166  0.53076986  0.14236459    -0.07300
C1299       C  0.63386906  0.51306044  0.11802292     0.13570
C1300       C  0.63372762  0.48190039  0.12065078    -0.20780
C1301       C  0.62379777  0.46781227  0.14684104    -0.07300
C1302       C  0.61034666  0.48525336  0.16967204     0.13560
C1303       C  0.59597035  0.47122531  0.19674917    -0.24130
H1304       H  0.60249798  0.53029734  0.18553878     0.14850
H1305       H  0.64240075  0.46840770  0.10236530     0.14880
C1306       C  0.64379597  0.52667090  0.08889651    -0.24080
H1307       H  0.58739288  0.48847024  0.21257424     0.05090
H1308       H  0.61230809  0.45712752  0.20893562     0.08320
H1309       H  0.57677949  0.45709011  0.18961564     0.08320
H1310       H  0.66533606  0.53869976  0.09162754     0.08300
H1311       H  0.62615814  0.54233462  0.08132823     0.08300
H1312       H  0.64701399  0.50941884  0.07117427     0.05080
C1313       C  0.51463356  0.64935770  0.11208308    -0.20730
C1314       C  0.53025043  0.63202192  0.13310025    -0.07300
C1315       C  0.51451289  0.61032407  0.15018786     0.13570
C1316       C  0.48328786  0.60941511  0.14848607    -0.20780
C1317       C  0.46749905  0.62940562  0.13014079    -0.07300
C1318       C  0.48347793  0.64829032  0.11020240     0.13560
C1319       C  0.46818997  0.66761074  0.08697000    -0.24130
H1320       H  0.52669003  0.66505319  0.09802477     0.14850
H1321       H  0.47111974  0.59416602  0.16292980     0.14880
C1322       C  0.53011400  0.58795884  0.17022250    -0.24080
H1323       H  0.48450873  0.67772033  0.07119022     0.05090
H1324       H  0.45612611  0.68651978  0.09774953     0.08320
H1325       H  0.45241273  0.65374326  0.07359365     0.08320
H1326       H  0.54045141  0.59952798  0.18965797     0.08300
H1327       H  0.54741655  0.57563767  0.15728590     0.08300
H1328       H  0.51429714  0.57104623  0.17933627     0.05080
C1329       C  0.45466460  0.26248257  0.78524079    -0.20730
C1330       C  0.47096025  0.28139060  0.76612732    -0.07300
C1331       C  0.45900453  0.30993215  0.75906633     0.13570
C1332       C  0.43231080  0.31951209  0.77262446    -0.20780
C1333       C  0.41733299  0.30174947  0.79386821    -0.07300
C1334       C  0.42809417  0.27214833  0.79916896     0.13560
C1335       C  0.41203627  0.25051646  0.81954775    -0.24130
H1336       H  0.46340914  0.24035777  0.79020965     0.14850
H1337       H  0.42442597  0.34211627  0.76822545     0.14880
C1338       C  0.47464989  0.33096581  0.73798032    -0.24080
H1339       H  0.42162286  0.22752131  0.81803266     0.05090
H1340       H  0.38809932  0.24910820  0.81307845     0.08320
H1341       H  0.41407563  0.25771062  0.84323670     0.08320
H1342       H  0.47738877  0.32003106  0.71582295     0.08300
H1343       H  0.49665399  0.33730820  0.74749793     0.08300
H1344       H  0.46180953  0.35204444  0.73447484     0.05080
C1345       C  0.53241303  0.27065684  0.79970862    -0.20730
C1346       C  0.52845580  0.28068444  0.77022869    -0.07300
C1347       C  0.55139234  0.29848175  0.75731300     0.13570
C1348       C  0.57682406  0.30615521  0.77420222    -0.20780
C1349       C  0.57987974  0.29798346  0.80444159    -0.07300
C1350       C  0.55739564  0.27907381  0.81705910     0.13560
C1351       C  0.55855644  0.26809321  0.84899481    -0.24130
H1352       H  0.51539525  0.25639682  0.80948316     0.14850
H1353       H  0.59351054  0.32052921  0.76399999     0.14880
C1354       C  0.54935820  0.31145766  0.72645668    -0.24080
H1355       H  0.54017922  0.25208177  0.85400177     0.05090
H1356       H  0.55602543  0.28726289  0.86473079     0.08320
H1357       H  0.57998424  0.25618181  0.85311114     0.08320
H1358       H  0.52737176  0.30730119  0.71651181     0.08300
H1359       H  0.56703163  0.30165348  0.71199299     0.08300
H1360       H  0.55233465  0.33622638  0.72747927     0.05080
C1361       C  0.29477363  0.46583605  0.77073440    -0.20730
C1362       C  0.26614723  0.47238514  0.78155213    -0.07300
C1363       C  0.25287534  0.45168458  0.80183126     0.13570
C1364       C  0.26893949  0.42605219  0.81121866    -0.20780
C1365       C  0.29817936  0.42006396  0.80127082    -0.07300
C1366       C  0.31078346  0.44016367  0.77974198     0.13560
C1367       C  0.34142999  0.43576008  0.76622098    -0.24130
H1368       H  0.30511215  0.48138561  0.75529622     0.14850
H1369       H  0.25883712  0.41133974  0.82767272     0.14880
C1370       C  0.22238217  0.45604936  0.81522919    -0.24080
H1371       H  0.34593749  0.45202786  0.74792739     0.05090
H1372       H  0.34321586  0.41287079  0.75643113     0.08320
H1373       H  0.35902458  0.43938577  0.78339592     0.08320
H1374       H  0.20794997  0.43655418  0.80951104     0.08300
H1375       H  0.21138748  0.47666874  0.80719919     0.08300
H1376       H  0.22426003  0.45749615  0.83998292     0.05080
C1377       C  0.28724753  0.54386998  0.76326532    -0.20730
C1378       C  0.26434644  0.53050485  0.78028803    -0.07300
C1379       C  0.25523869  0.54510164  0.80688707     0.13570
C1380       C  0.26886014  0.57218538  0.81552602    -0.20780
C1381       C  0.29377853  0.58409476  0.80032934    -0.07300
C1382       C  0.30241960  0.57001918  0.77307527     0.13560
C1383       C  0.32828007  0.58135304  0.75471759    -0.24130
H1384       H  0.29438659  0.53287529  0.74284516     0.14850
H1385       H  0.26154178  0.58265212  0.83617977     0.14880
C1386       C  0.23274386  0.53148665  0.82778298    -0.24080
H1387       H  0.33091492  0.56840208  0.73359594     0.05090
H1388       H  0.34943991  0.57905840  0.76751483     0.08320
H1389       H  0.32452407  0.60525679  0.74866877     0.08320
H1390       H  0.24158194  0.50992138  0.83638641     0.08300
H1391       H  0.21122072  0.52819303  0.81621008     0.08300
H1392       H  0.22834681  0.54603211  0.84752970     0.05080
C1393       C  0.19798890  0.45350424  0.74740569    -0.20730
C1394       C  0.22178207  0.46942183  0.73425697    -0.07300
C1395       C  0.23727857  0.45544072  0.71036067     0.13570
C1396       C  0.22762512  0.42729161  0.69946933    -0.20780
C1397       C  0.20190131  0.41280465  0.71068810    -0.07300
C1398       C  0.18801579  0.42551268  0.73631290     0.13560
C1399       C  0.16142924  0.41102752  0.75117428    -0.24130
H1400       H  0.18582756  0.46349921  0.76562318     0.14850
H1401       H  0.23880611  0.41785321  0.68009795     0.14880
C1402       C  0.26254575  0.47090004  0.69438335    -0.24080
H1403       H  0.15461159  0.42328575  0.77175211     0.05090
H1404       H  0.16711140  0.38765583  0.75775174     0.08320
H1405       H  0.14191887  0.41101192  0.73581154     0.08320
H1406       H  0.27935225  0.47937010  0.71049419     0.08300
H1407       H  0.25347207  0.48971829  0.68096925     0.08300
H1408       H  0.27416217  0.45548897  0.67863561     0.05080
C1409       C  0.23543090  0.54277042  0.71017742    -0.20730
C1410       C  0.21902523  0.52821708  0.73287792    -0.07300
C1411       C  0.19155319  0.54141017  0.74160366     0.13570
C1412       C  0.18046661  0.56667634  0.72623457    -0.20780
C1413       C  0.19541895  0.57969121  0.70161027    -0.07300
C1414       C  0.22399767  0.56782675  0.69421868     0.13560
C1415       C  0.24246545  0.58070656  0.66916460    -0.24130
H1416       H  0.25727043  0.53419544  0.70440372     0.14850
H1417       H  0.15890765  0.57544511  0.73305200     0.14880
C1418       C  0.17273933  0.52955800  0.76682627    -0.24080
H1419       H  0.26459010  0.56949794  0.66738199     0.05090
H1420       H  0.24646035  0.60500665  0.67323603     0.08320
H1421       H  0.23078594  0.57749693  0.64745771     0.08320
H1422       H  0.18317618  0.51048145  0.77838681     0.08300
H1423       H  0.15063485  0.52224954  0.75814166     0.08300
H1424       H  0.16921150  0.54762033  0.78364723     0.05080
C1425       C  0.82317677  0.72440489  0.44237477    -0.20730
C1426       C  0.80478322  0.70819634  0.42228821    -0.07300
C1427       C  0.77385170  0.70622844  0.42904446     0.13570
C1428       C  0.76274862  0.71994257  0.45541157    -0.20780
C1429       C  0.78149962  0.73571527  0.47544854    -0.07300
C1430       C  0.81237119  0.73701735  0.46900544     0.13560
C1431       C  0.83468930  0.75064444  0.49040798    -0.24130
H1432       H  0.84698441  0.72592321  0.43827923     0.14850
H1433       H  0.73932760  0.71751530  0.46090529     0.14880
C1434       C  0.75235294  0.68961207  0.40901757    -0.24080
H1435       H  0.85786656  0.74964055  0.48156644     0.05090
H1436       H  0.83463515  0.73797335  0.51174112     0.08320
H1437       H  0.82954174  0.77457990  0.49450396     0.08320
H1438       H  0.75776520  0.66527200  0.40881205     0.08300
H1439       H  0.75359894  0.69877889  0.38594521     0.08300
H1440       H  0.72889678  0.69197171  0.41684064     0.05080
C1441       C  0.76478058  0.70776371  0.53852348    -0.20730
C1442       C  0.77617457  0.73645953  0.53284523    -0.07300
C1443       C  0.79356115  0.75066618  0.55537850     0.13570
C1444       C  0.80203932  0.73432007  0.58105005    -0.20780
C1445       C  0.79287099  0.70437126  0.58553255    -0.07300
C1446       C  0.77197370  0.69189405  0.56472953     0.13560
C1447       C  0.75717142  0.66171932  0.56915774    -0.24130
H1448       H  0.75018166  0.69753349  0.52199194     0.14850
H1449       H  0.81725771  0.74469266  0.59689560     0.14880
C1450       C  0.80482125  0.78240578  0.55262710    -0.24080
H1451       H  0.73904731  0.65776948  0.55257818     0.05090
H1452       H  0.74693673  0.66066623  0.59176925     0.08320
H1453       H  0.77353635  0.64326953  0.56620054     0.08320
H1454       H  0.79602449  0.79608870  0.57147345     0.08300
H1455       H  0.79790128  0.79321358  0.53147588     0.08300
H1456       H  0.82962921  0.78254083  0.55355974     0.05080
C1457       C  0.43869007  0.19079285  0.71862373    -0.20730
C1458       C  0.42096680  0.20526791  0.69702954    -0.07300
C1459       C  0.42847551  0.23524999  0.68910588     0.13570
C1460       C  0.45404610  0.24906000  0.70175433    -0.20780
C1461       C  0.47293807  0.23368931  0.72173845    -0.07300
C1462       C  0.46405995  0.20460741  0.73131885     0.13560
C1463       C  0.48022513  0.18753123  0.75544521    -0.24130
H1464       H  0.43329950  0.16793683  0.72507454     0.14850
H1465       H  0.45990493  0.27173278  0.69522086     0.14880
C1466       C  0.40959372  0.25298028  0.66746320    -0.24080
H1467       H  0.46386594  0.17942315  0.77229234     0.05090
H1468       H  0.49627453  0.20166816  0.76779663     0.08320
H1469       H  0.49195842  0.16790540  0.74553486     0.08320
H1470       H  0.38600202  0.25319777  0.67517203     0.08300
H1471       H  0.41087362  0.24304055  0.64472326     0.08300
H1472       H  0.41727805  0.27665921  0.66574835     0.05080
C1473       C  0.36443248  0.98338185  0.61821722    -0.20730
C1474       C  0.37139347  0.96810653  0.64475534    -0.07300
C1475       C  0.37902480  0.98439702  0.67085309     0.13570
C1476       C  0.37748610  0.01574702  0.67017639    -0.20780
C1477       C  0.36824736  0.03083699  0.64426134    -0.07300
C1478       C  0.36280056  0.01468488  0.61758896     0.13560
C1479       C  0.35551513  0.03021058  0.58845771    -0.24130
H1480       H  0.35922872  0.97065741  0.59813565     0.14850
H1481       H  0.38205155  0.02848451  0.69039256     0.14880
C1482       C  0.38702400  0.96901621  0.69985056    -0.24080
H1483       H  0.35400252  0.01399445  0.56957063     0.05090
H1484       H  0.37329861  0.04674729  0.58304495     0.08320
H1485       H  0.33365529  0.04186572  0.59004812     0.08320
H1486       H  0.40770992  0.95555588  0.69688496     0.08300
H1487       H  0.36842350  0.95413755  0.70699998     0.08300
H1488       H  0.39126717  0.98543367  0.71812428     0.05080
C1489       C  0.70116847  0.23556630  0.53421605    -0.20730
C1490       C  0.73066568  0.22647836  0.52939502    -0.07300
C1491       C  0.74514090  0.20929462  0.55190920     0.13570
C1492       C  0.72883937  0.19963086  0.57716996    -0.20780
C1493       C  0.69838200  0.20673550  0.58090596    -0.07300
C1494       C  0.68492417  0.22647262  0.55949708     0.13560
C1495       C  0.65308711  0.23758884  0.56183483    -0.24130
H1496       H  0.69045535  0.24952843  0.51745154     0.14850
H1497       H  0.73972431  0.18501618  0.59323185     0.14880
C1498       C  0.77712872  0.19925048  0.54940405    -0.24080
H1499       H  0.64772751  0.25456147  0.54441429     0.05090
H1500       H  0.64948122  0.24847157  0.58392750     0.08320
H1501       H  0.63723082  0.21871583  0.55852895     0.08320
H1502       H  0.79031883  0.20887736  0.56818737     0.08300
H1503       H  0.78750505  0.20626559  0.52816095     0.08300
H1504       H  0.77826061  0.17434062  0.55050040     0.05080
C1505       C  0.56893646  0.23014988  0.68277091    -0.20730
C1506       C  0.58411424  0.20855620  0.70015158    -0.07300
C1507       C  0.57477392  0.20423821  0.73006696     0.13570
C1508       C  0.54914578  0.21934513  0.74061677    -0.20780
C1509       C  0.53103670  0.23679089  0.72147049    -0.07300
C1510       C  0.54164693  0.24288540  0.69220482     0.13560
C1511       C  0.52346414  0.26041171  0.66952068    -0.24130
H1512       H  0.57613766  0.23398239  0.65993576     0.14850
H1513       H  0.54266958  0.21642568  0.76372560     0.14880
C1514       C  0.59172413  0.18392139  0.75104864    -0.24080
H1515       H  0.53530699  0.26231246  0.64776917     0.05090
H1516       H  0.51851210  0.28340811  0.67703980     0.08320
H1517       H  0.50194037  0.24910622  0.66500177     0.08320
H1518       H  0.61559102  0.19074260  0.75177730     0.08300
H1519       H  0.58998358  0.16018565  0.74366761     0.08300
H1520       H  0.58274138  0.18513698  0.77419600     0.05080
C1521       C  0.51340632  0.10663205  0.62555006    -0.20730
C1522       C  0.52720724  0.13325242  0.63557055    -0.07300
C1523       C  0.50926910  0.15852718  0.64215056     0.13570
C1524       C  0.47895975  0.15794038  0.63620941    -0.20780
C1525       C  0.46517151  0.13176542  0.62670495    -0.07300
C1526       C  0.48207278  0.10542385  0.62186222     0.13560
C1527       C  0.46700604  0.07644102  0.61328163    -0.24130
H1528       H  0.52693186  0.08693478  0.62101295     0.14850
H1529       H  0.46538944  0.17755438  0.64135715     0.14880
C1530       C  0.52110685  0.18529738  0.65840587    -0.24080
H1531       H  0.48346466  0.05798317  0.61027276     0.05090
H1532       H  0.45463378  0.07947884  0.59193062     0.08320
H1533       H  0.45102400  0.06971280  0.63106293     0.08320
H1534       H  0.53448342  0.19926205  0.64286563     0.08300
H1535       H  0.53454584  0.17770175  0.67785726     0.08300
H1536       H  0.50267662  0.19914777  0.66758573     0.05080
C1537       C  0.72167133  0.82270384  0.56683855    -0.20730
C1538       C  0.70321798  0.80313795  0.58311766    -0.07300
C1539       C  0.69959777  0.77331915  0.57233211     0.13570
C1540       C  0.71400175  0.76437724  0.54562809    -0.20780
C1541       C  0.73199393  0.78426480  0.52900929    -0.07300
C1542       C  0.73547585  0.81404516  0.53994624     0.13560
C1543       C  0.75314793  0.83787791  0.52409039    -0.24130
H1544       H  0.72403102  0.84583935  0.57418277     0.14850
H1545       H  0.71084377  0.74169161  0.53735359     0.14880
C1546       C  0.68087228  0.75061515  0.58887045    -0.24080
H1547       H  0.73826839  0.85700615  0.51832000     0.05090
H1548       H  0.76329208  0.82972172  0.50338517     0.08320
H1549       H  0.77135990  0.84609573  0.53891094     0.08320
H1550       H  0.65692308  0.75699935  0.58809705     0.08300
H1551       H  0.68844547  0.74913283  0.61250596     0.08300
H1552       H  0.68279703  0.72785877  0.57876781     0.05080
C1553       C  0.65897458  0.98592188  0.61035042    -0.20730
C1554       C  0.63397359  0.97087417  0.62179171    -0.07300
C1555       C  0.60861141  0.98751290  0.63093477     0.13570
C1556       C  0.61015046  0.01890122  0.63120886    -0.20780
C1557       C  0.63620966  0.03396788  0.62239145    -0.07300
C1558       C  0.66049901  0.01735025  0.61053550     0.13560
C1559       C  0.68877495  0.03224504  0.59974615    -0.24130
H1560       H  0.67819895  0.97301963  0.60301756     0.14850
H1561       H  0.59122408  0.03177565  0.63933577     0.14880
C1562       C  0.57988328  0.97247173  0.64038916    -0.24080
H1563       H  0.70581155  0.01554529  0.59259567     0.05090
H1564       H  0.69867429  0.04594570  0.61797651     0.08320
H1565       H  0.68377054  0.04677406  0.58019421     0.08320
H1566       H  0.58301098  0.96018827  0.66173871     0.08300
H1567       H  0.57238767  0.95662497  0.62266674     0.08300
H1568       H  0.56170785  0.98909841  0.64403952     0.05080
C1569       C  0.51317779  0.88978257  0.64939760    -0.20730
C1570       C  0.52910030  0.86937060  0.63157364    -0.07300
C1571       C  0.51325157  0.85010334  0.61178633     0.13570
C1572       C  0.48203789  0.84952525  0.61291409    -0.20780
C1573       C  0.46621189  0.86761449  0.63312194    -0.07300
C1574       C  0.48190403  0.88925882  0.65044709     0.13560
C1575       C  0.46617564  0.91199552  0.67002178    -0.24130
H1576       H  0.52525345  0.90521764  0.66381168     0.14850
H1577       H  0.47003056  0.83367939  0.59889278     0.14880
C1578       C  0.52873570  0.82997659  0.58936848    -0.24080
H1579       H  0.48200708  0.92881876  0.67937155     0.05090
H1580       H  0.45535076  0.90074131  0.68930906     0.08320
H1581       H  0.44922519  0.92436688  0.65666794     0.08320
H1582       H  0.54064195  0.81145083  0.60092796     0.08300
H1583       H  0.54469044  0.84335042  0.57579395     0.08300
H1584       H  0.51257606  0.81934836  0.57368687     0.05080
C1585       C  0.71841656  0.18137750  0.43797445    -0.20730
C1586       C  0.70385328  0.20087268  0.41800910    -0.07300
C1587       C  0.70266959  0.23185556  0.42501961     0.13570
C1588       C  0.71589480  0.24235805  0.45174013    -0.20780
C1589       C  0.73025501  0.22274161  0.47193788    -0.07300
C1590       C  0.73073145  0.19160925  0.46509701     0.13560
C1591       C  0.74321275  0.16860769  0.48647152    -0.24130
H1592       H  0.71828330  0.15744260  0.43332851     0.14850
H1593       H  0.71444123  0.26602680  0.45724656     0.14880
C1594       C  0.68774593  0.25394799  0.40430353    -0.24080
H1595       H  0.74197338  0.14548805  0.47712024     0.05090
H1596       H  0.73005774  0.16864302  0.50748013     0.08320
H1597       H  0.76699384  0.17327650  0.49136369     0.08320
H1598       H  0.66345069  0.24923736  0.40272810     0.08300
H1599       H  0.69792384  0.25233858  0.38169502     0.08300
H1600       H  0.69040398  0.27744210  0.41234771     0.05080
C1601       C  0.60553022  0.15492240  0.48239306    -0.20730
C1602       C  0.62711832  0.13705285  0.46807266    -0.07300
C1603       C  0.64454563  0.11680378  0.48528962     0.13570
C1604       C  0.64222327  0.11764374  0.51636878    -0.20780
C1605       C  0.62339277  0.13824381  0.53086665    -0.07300
C1606       C  0.60333102  0.15578196  0.51366259     0.13560
C1607       C  0.58042072  0.17628693  0.52768891    -0.24130
H1608       H  0.59137124  0.16958158  0.46918210     0.14850
H1609       H  0.65644804  0.10298357  0.52953776     0.14880
C1610       C  0.66599893  0.09440793  0.47159716    -0.24080
H1611       H  0.56672708  0.18803098  0.51055187     0.05090
H1612       H  0.59162974  0.19373230  0.54145930     0.08320
H1613       H  0.56493322  0.16295260  0.54182795     0.08320
H1614       H  0.68550487  0.10616187  0.46171869     0.08300
H1615       H  0.65433513  0.08083924  0.45427061     0.08300
H1616       H  0.67500942  0.07854712  0.48854799     0.05080
C1617       C  0.73479223  0.80788156  0.42309193    -0.20730
C1618       C  0.70612242  0.79691165  0.41607970    -0.07300
C1619       C  0.69405671  0.77409806  0.43484173     0.13570
C1620       C  0.70725077  0.76857537  0.46291304    -0.20780
C1621       C  0.73470710  0.78144025  0.47107043    -0.07300
C1622       C  0.74990573  0.79909472  0.44937363     0.13560
C1623       C  0.78184970  0.80910451  0.45276014    -0.24130
H1624       H  0.74537696  0.82395631  0.40828983     0.14850
H1625       H  0.69680963  0.75275746  0.47809937     0.14880
C1626       C  0.66878478  0.75382993  0.42491101    -0.24080
H1627       H  0.79532381  0.79992077  0.43398548     0.05090
H1628       H  0.79202464  0.80125730  0.47383978     0.08320
H1629       H  0.78305268  0.83403082  0.45221526     0.08320
H1630       H  0.67441589  0.74367131  0.40290257     0.08300
H1631       H  0.64730848  0.76591050  0.42307795     0.08300
H1632       H  0.66518822  0.73511798  0.44094880     0.05080
C1633       C  0.63520828  0.88444753  0.48398929    -0.20730
C1634       C  0.62757136  0.85776943  0.46911284    -0.07300
C1635       C  0.61670076  0.83296733  0.48563496     0.13570
C1636       C  0.61603709  0.83473782  0.51685007    -0.20780
C1637       C  0.62612209  0.86050190  0.53174051    -0.07300
C1638       C  0.63443871  0.88623640  0.51521686     0.13560
C1639       C  0.64228741  0.91560534  0.53025478    -0.24130
H1640       H  0.64261286  0.90370352  0.47111433     0.14850
H1641       H  0.60942040  0.81521268  0.52975354     0.14880
C1642       C  0.60789831  0.80384454  0.47087932    -0.24080
H1643       H  0.64577053  0.93385016  0.51366941     0.05090
H1644       H  0.66327346  0.91337310  0.54329231     0.08320
H1645       H  0.62381389  0.92256687  0.54534798     0.08320
H1646       H  0.62719516  0.79503992  0.45818330     0.08300
H1647       H  0.58862307  0.80747144  0.45564542     0.08300
H1648       H  0.60128069  0.78650685  0.48746956     0.05080
C1649       C  0.61490362  0.98419050  0.36383978    -0.20730
C1650       C  0.63936162  0.96926230  0.37673006    -0.07300
C1651       C  0.66222046  0.98625334  0.39071551     0.13570
C1652       C  0.66093828  0.01772998  0.38953808    -0.20780
C1653       C  0.63774250  0.03255334  0.37435963    -0.07300
C1654       C  0.61374361  0.01557937  0.36240329     0.13560
C1655       C  0.58678512  0.03016289  0.34813073    -0.24130
H1656       H  0.59704705  0.97112109  0.35377786     0.14850
H1657       H  0.67910136  0.03078147  0.39902901     0.14880
C1658       C  0.68893357  0.97159406  0.40524588    -0.24080
H1659       H  0.56914724  0.01342841  0.34271428     0.05090
H1660       H  0.59307352  0.04123483  0.32682405     0.08320
H1661       H  0.57697737  0.04693184  0.36373138     0.08320
H1662       H  0.70088081  0.95737627  0.38865994     0.08300
H1663       H  0.68156061  0.95761050  0.42442572     0.08300
H1664       H  0.70505451  0.98846570  0.41398476     0.05080
C1665       C  0.33293621  0.11501885  0.48393016    -0.20730
C1666       C  0.36005457  0.12294862  0.47026400    -0.07300
C1667       C  0.38559920  0.12805881  0.48811875     0.13570
C1668       C  0.38290010  0.12704597  0.51924149    -0.20780
C1669       C  0.35527817  0.12146484  0.53295124    -0.07300
C1670       C  0.32998722  0.11471338  0.51513358     0.13560
C1671       C  0.29915992  0.10932054  0.52770571    -0.24130
H1672       H  0.31329155  0.11113315  0.47018441     0.14850
H1673       H  0.40228478  0.13182926  0.53307908     0.14880
C1674       C  0.41579584  0.13402559  0.47459597    -0.24080
H1675       H  0.29149739  0.08646245  0.52127241     0.05090
H1676       H  0.28339026  0.12606970  0.51825145     0.08320
H1677       H  0.29784691  0.11129393  0.55231943     0.08320
H1678       H  0.41573768  0.15556593  0.46214821     0.08300
H1679       H  0.42143483  0.11520471  0.45934238     0.08300
H1680       H  0.43358927  0.13552715  0.49191085     0.05080
C1681       C  0.48407506  0.13085146  0.33724053    -0.20730
C1682       C  0.46989650  0.13466907  0.36522265    -0.07300
C1683       C  0.48767165  0.13532201  0.39150692     0.13570
C1684       C  0.51884760  0.13364779  0.38886176    -0.20780
C1685       C  0.53251092  0.13067841  0.36083876    -0.07300
C1686       C  0.51505002  0.12882023  0.33475728     0.13560
C1687       C  0.52904308  0.12639394  0.30412763    -0.24130
H1688       H  0.47101277  0.13030702  0.31679861     0.14850
H1689       H  0.53276441  0.13519601  0.40871202     0.14880
C1690       C  0.47434212  0.13724940  0.42231632    -0.24080
H1691       H  0.54400106  0.14586766  0.30027274     0.05090
H1692       H  0.54215321  0.10527337  0.30246285     0.08320
H1693       H  0.51198634  0.12620674  0.28602601     0.08320
H1694       H  0.45906889  0.11792392  0.42549348     0.08300
H1695       H  0.46215673  0.15879117  0.42513528     0.08300
H1696       H  0.49168575  0.13617130  0.44011065     0.05080
C1697       C  0.35830173  0.89453901  0.48240346    -0.20730
C1698       C  0.37310092  0.87035789  0.46848402    -0.07300
C1699       C  0.38873696  0.84936419  0.48626722     0.13570
C1700       C  0.38707502  0.85181745  0.51737480    -0.20780
C1701       C  0.36941271  0.87395681  0.53144094    -0.07300
C1702       C  0.35613847  0.89664520  0.51366869     0.13560
C1703       C  0.33872874  0.92240274  0.52701170    -0.24130
H1704       H  0.34709361  0.91116286  0.46865286     0.14850
H1705       H  0.39845417  0.83504632  0.53077960     0.14880
C1706       C  0.40553903  0.82307906  0.47302247    -0.24080
H1707       H  0.33048769  0.93811961  0.50954648     0.05090
H1708       H  0.35327401  0.93542913  0.54246989     0.08320
H1709       H  0.31893822  0.91374787  0.53923703     0.08320
H1710       H  0.42414119  0.83134067  0.45881814     0.08300
H1711       H  0.39011978  0.80894720  0.45949480     0.08300
H1712       H  0.41547149  0.80847584  0.49056637     0.05080
C1713       C  0.51789955  0.89436927  0.35726960    -0.21710
C1714       C  0.53262430  0.86668592  0.36141343    -0.07300
C1715       C  0.51530819  0.84010659  0.36492136     0.13570
C1716       C  0.48445865  0.84206579  0.36340607    -0.20780
C1717       C  0.46964869  0.86940810  0.35894063    -0.07300
C1718       C  0.48652039  0.89611186  0.35604970     0.13560
C1719       C  0.47185588  0.92635693  0.35217857    -0.24130
H1720       H  0.53095904  0.91472795  0.35478040     0.14850
H1721       H  0.47172715  0.82148290  0.36526335     0.14880
C1722       C  0.52831811  0.80901748  0.36952699    -0.24080
H1723       H  0.48854955  0.94483861  0.35183830     0.05090
H1724       H  0.45623737  0.93064394  0.37102042     0.08320
H1725       H  0.45946357  0.92706067  0.33065281     0.08320
H1726       H  0.54110209  0.80818075  0.39083290     0.08300
H1727       H  0.54276640  0.80301403  0.35033030     0.08300
H1728       H  0.51087517  0.79129582  0.37097258     0.05080
C1729       C  0.37847296  0.98459237  0.33841850    -0.20730
C1730       C  0.36833693  0.97028047  0.36467887    -0.07300
C1731       C  0.36214657  0.98787104  0.39042922     0.13570
C1732       C  0.36385096  0.01918557  0.38819118    -0.20780
C1733       C  0.37163113  0.03311156  0.36117226    -0.07300
C1734       C  0.37989915  0.01572812  0.33622017     0.13560
C1735       C  0.38817701  0.02971569  0.30657693    -0.24130
H1736       H  0.38402405  0.97152353  0.31870928     0.14850
H1737       H  0.35794557  0.03302102  0.40731486     0.14880
C1738       C  0.35330472  0.97435982  0.42009425    -0.24080
H1739       H  0.36957749  0.04411751  0.29844992     0.05090
H1740       H  0.40875662  0.04341748  0.30914889     0.08320
H1741       H  0.39264365  0.01247670  0.28912194     0.08320
H1742       H  0.37070273  0.95823020  0.42762687     0.08300
H1743       H  0.33140022  0.96282247  0.41805642     0.08300
H1744       H  0.35093952  0.99176772  0.43780093     0.05080
C1745       C  0.46491709  0.76602906  0.30465838    -0.20730
C1746       C  0.47129466  0.77175650  0.27440733    -0.07300
C1747       C  0.44961502  0.78729670  0.25709998     0.13570
C1748       C  0.42371469  0.79870434  0.27110848    -0.20780
C1749       C  0.41776463  0.79387682  0.30170740    -0.07300
C1750       C  0.43817927  0.77585083  0.31821187     0.13560
C1751       C  0.43249479  0.76719644  0.35033608    -0.24130
H1752       H  0.48090966  0.75323564  0.31770966     0.14850
H1753       H  0.40835553  0.81229823  0.25808897     0.14880
C1754       C  0.45305756  0.79274734  0.22400433    -0.24080
H1755       H  0.45066138  0.75284094  0.35946052     0.05090
H1756       H  0.41131520  0.75427898  0.35180598     0.08320
H1757       H  0.43097755  0.78740297  0.36473571     0.08320
H1758       H  0.47374384  0.78288816  0.21467198     0.08300
H1759       H  0.43386845  0.78252625  0.21191437     0.08300
H1760       H  0.45331084  0.81729522  0.21955318     0.05080
C1761       C  0.44756516  0.70029344  0.18500254    -0.20730
C1762       C  0.42099267  0.69772913  0.20120288    -0.07300
C1763       C  0.42122915  0.70609356  0.23156726     0.13570
C1764       C  0.44815028  0.71639792  0.24487457    -0.20780
C1765       C  0.47489941  0.72068406  0.22823513    -0.07300
C1766       C  0.47435586  0.71072110  0.19773743     0.13560
C1767       C  0.50132563  0.71019040  0.17747389    -0.24130
H1768       H  0.44763775  0.69338770  0.16186268     0.14850
H1769       H  0.44806804  0.72057397  0.26864925     0.14880
C1770       C  0.39291407  0.70488194  0.24962919    -0.24080
H1771       H  0.50982618  0.73329751  0.17421248     0.05090
H1772       H  0.51864298  0.69485920  0.18652250     0.08320
H1773       H  0.49604170  0.70140773  0.15478177     0.08320
H1774       H  0.38448951  0.68144377  0.25058997     0.08300
H1775       H  0.37571712  0.71939351  0.23897359     0.08300
H1776       H  0.39648630  0.71306837  0.27287140     0.05080
C1777       C  0.56643138  0.81365023  0.27568714    -0.20730
C1778       C  0.58321421  0.79871747  0.29795200    -0.07300
C1779       C  0.57289921  0.77000879  0.30750014     0.13570
C1780       C  0.54610304  0.75808605  0.29547436    -0.20780
C1781       C  0.52869546  0.77408431  0.27462407    -0.07300
C1782       C  0.53920993  0.80229649  0.26468870     0.13560
C1783       C  0.52153623  0.82117614  0.24302471    -0.24130
H1784       H  0.57370333  0.83550378  0.26789558     0.14850
H1785       H  0.53817024  0.73636762  0.30298754     0.14880
C1786       C  0.58896727  0.75217345  0.33122511    -0.24080
H1787       H  0.49964103  0.82703767  0.25305764     0.05090
H1788       H  0.51814307  0.80891813  0.22172224     0.08320
H1789       H  0.53311121  0.84257313  0.23762340     0.08320
H1790       H  0.58846296  0.76445028  0.35287585     0.08300
H1791       H  0.61244727  0.74812935  0.32427000     0.08300
H1792       H  0.57830339  0.72994646  0.33496824     0.05080
C1793       C  0.55026248  0.74377848  0.21412414    -0.20730
C1794       C  0.53324700  0.72577754  0.23354610    -0.07300
C1795       C  0.54553197  0.69820354  0.24329078     0.13570
C1796       C  0.57212037  0.68749504  0.23014557    -0.20780
C1797       C  0.58662859  0.70342536  0.20708311    -0.07300
C1798       C  0.57627089  0.73278823  0.20019794     0.13560
C1799       C  0.59164058  0.75238885  0.17738230    -0.24130
H1800       H  0.54152371  0.76541548  0.20747946     0.14850
H1801       H  0.58002732  0.66529763  0.23625484     0.14880
C1802       C  0.53080132  0.67927139  0.26696518    -0.24080
H1803       H  0.58237040  0.77556292  0.17736262     0.05090
H1804       H  0.58846633  0.74326478  0.15448666     0.08320
H1805       H  0.61585812  0.75395081  0.18261332     0.08320
H1806       H  0.54663614  0.67589906  0.28584181     0.08300
H1807       H  0.51028013  0.68976721  0.27615982     0.08300
H1808       H  0.52475473  0.65703946  0.25740061     0.05080
C1809       C  0.26369971  0.79931088  0.46122537    -0.20730
C1810       C  0.27532611  0.77126653  0.46982157    -0.07300
C1811       C  0.29702878  0.75758476  0.45116097     0.13570
C1812       C  0.30643141  0.77212926  0.42496116    -0.20780
C1813       C  0.29656224  0.80116176  0.41744979    -0.07300
C1814       C  0.27414532  0.81458016  0.43561478     0.13560
C1815       C  0.26221467  0.84563671  0.42938295    -0.24130
H1816       H  0.24693733  0.80984821  0.47518412     0.14850
H1817       H  0.32371949  0.76158661  0.41154600     0.14880
C1818       C  0.31255612  0.72871763  0.45891631    -0.24080
H1819       H  0.24470459  0.85231737  0.44571056     0.05090
H1820       H  0.25206392  0.84628988  0.40669893     0.08320
H1821       H  0.28053422  0.86239479  0.43098100     0.08320
H1822       H  0.30737345  0.71140523  0.44174315     0.08300
H1823       H  0.30608998  0.72031684  0.48106219     0.08300
H1824       H  0.33710606  0.73242770  0.45951903     0.05080
C1825       C  0.30438530  0.76317438  0.53629094    -0.20730
C1826       C  0.27526405  0.77033276  0.52723791    -0.07300
C1827       C  0.25836346  0.79059861  0.54493101     0.13570
C1828       C  0.27137800  0.80353813  0.57065478    -0.20780
C1829       C  0.30086154  0.79678672  0.57944120    -0.07300
C1830       C  0.31724263  0.77552602  0.56221810     0.13560
C1831       C  0.34895425  0.76667839  0.56974537    -0.24130
H1832       H  0.31757126  0.74812025  0.52262228     0.14850
H1833       H  0.25875714  0.82007443  0.58325794     0.14880
C1834       C  0.22714525  0.80024853  0.53672032    -0.24080
H1835       H  0.35804888  0.74993498  0.55367475     0.05090
H1836       H  0.34973075  0.75633300  0.59232891     0.08320
H1837       H  0.36378736  0.78661923  0.56897526     0.08320
H1838       H  0.21154516  0.79411732  0.55504162     0.08300
H1839       H  0.21898753  0.78972691  0.51578813     0.08300
H1840       H  0.22659616  0.82499924  0.53358650     0.05080
C1841       C  0.22894044  0.68526326  0.42800647    -0.20730
C1842       C  0.20614882  0.70181255  0.41369614    -0.07300
C1843       C  0.19969181  0.73100719  0.42488919     0.13570
C1844       C  0.21352599  0.74103355  0.45155784    -0.20780
C1845       C  0.23271479  0.72233992  0.46823311    -0.07300
C1846       C  0.24035018  0.69391538  0.45615047     0.13560
C1847       C  0.25737574  0.67087420  0.47405617    -0.24130
H1848       H  0.23433196  0.66299469  0.41976360     0.14850
H1849       H  0.20803809  0.76305657  0.46038606     0.14880
C1850       C  0.17812114  0.75169715  0.40917757    -0.24080
H1851       H  0.25966202  0.64927264  0.46177163     0.05090
H1852       H  0.24517566  0.66603471  0.49510105     0.08320
H1853       H  0.28014930  0.67865777  0.47924792     0.08320
H1854       H  0.15491917  0.74319605  0.41110008     0.08300
H1855       H  0.18438314  0.75373555  0.38521907     0.08300
H1856       H  0.17842329  0.77459782  0.41913327     0.05080
C1857       C  0.20067773  0.72984748  0.53248172    -0.20730
C1858       C  0.23045509  0.72179886  0.52653109    -0.07300
C1859       C  0.24544874  0.70351728  0.54791398     0.13570
C1860       C  0.22981583  0.69242516  0.57303762    -0.20780
C1861       C  0.19974539  0.69978603  0.57853822    -0.07300
C1862       C  0.18543018  0.71983835  0.55828791     0.13560
C1863       C  0.15362768  0.73004643  0.56281825    -0.24130
H1864       H  0.18907434  0.74402611  0.51654578     0.14850
H1865       H  0.24109666  0.67705822  0.58811673     0.14880
C1866       C  0.27755528  0.69411536  0.54476194    -0.24080
H1867       H  0.14627212  0.74581246  0.54500841     0.05090
H1868       H  0.15161719  0.74194821  0.58458344     0.08320
H1869       H  0.13828205  0.71056095  0.56232522     0.08320
H1870       H  0.29052256  0.70223892  0.56439041     0.08300
H1871       H  0.28802944  0.70316628  0.52444027     0.08300
H1872       H  0.27901435  0.66921628  0.54376321     0.05080
C1873       C  0.45746235  0.73998577  0.79624713    -0.20730
C1874       C  0.47143381  0.72592483  0.77177069    -0.07300
C1875       C  0.45718565  0.70061806  0.75889431     0.13570
C1876       C  0.43055838  0.68947356  0.77150613    -0.20780
C1877       C  0.41759719  0.70226327  0.79733204    -0.07300
C1878       C  0.43105976  0.72864536  0.80926488     0.13560
C1879       C  0.41860977  0.74475498  0.83623490    -0.24130
H1880       H  0.46718001  0.76026173  0.80531963     0.14850
H1881       H  0.42061168  0.66947854  0.76183262     0.14880
C1882       C  0.47000382  0.68466747  0.73215762    -0.24080
H1883       H  0.43137970  0.76551494  0.84152903     0.05090
H1884       H  0.41986432  0.73001829  0.85622483     0.08320
H1885       H  0.39508069  0.75143660  0.83190809     0.08320
H1886       H  0.49175346  0.67449638  0.73803581     0.08300
H1887       H  0.47266155  0.70063988  0.71348994     0.08300
H1888       H  0.45525784  0.66619864  0.72424445     0.05080
C1889       C  0.44873226  0.78747656  0.74317906    -0.20730
C1890       C  0.46996918  0.77247520  0.72514812    -0.07300
C1891       C  0.46288783  0.76760902  0.69470232     0.13570
C1892       C  0.43523127  0.77722486  0.68353072    -0.20780
C1893       C  0.41504664  0.79461740  0.70068690    -0.07300
C1894       C  0.42178320  0.79907692  0.73136291     0.13560
C1895       C  0.40122514  0.81635756  0.75179410    -0.24130
H1896       H  0.45375580  0.79156972  0.76645625     0.14850
H1897       H  0.43071674  0.77314193  0.66004781     0.14880
C1898       C  0.48479036  0.75391054  0.67293684    -0.24080
H1899       H  0.40903626  0.81573131  0.77540713     0.05090
H1900       H  0.37847485  0.80640138  0.75101933     0.08320
H1901       H  0.40032091  0.84030835  0.74497670     0.08320
H1902       H  0.49305492  0.73198595  0.68107173     0.08300
H1903       H  0.50377466  0.76954308  0.66957885     0.08300
H1904       H  0.47461801  0.75002156  0.65056612     0.05080
C1905       C  0.54553612  0.70615270  0.75485343    -0.20730
C1906       C  0.52967333  0.72820043  0.77102001    -0.07300
C1907       C  0.54392530  0.74165664  0.79591952     0.13570
C1908       C  0.57232050  0.73162041  0.80485567    -0.20780
C1909       C  0.58639533  0.70674407  0.79124483    -0.07300
C1910       C  0.57352282  0.69512926  0.76458182     0.13560
C1911       C  0.58788325  0.66995217  0.74717816    -0.24130
H1912       H  0.53574163  0.69692323  0.73473407     0.14850
H1913       H  0.58217929  0.74141133  0.82479773     0.14880
C1914       C  0.52874416  0.76512322  0.81480013    -0.24080
H1915       H  0.57550261  0.66499222  0.72616782     0.05090
H1916       H  0.58807004  0.64903476  0.76066787     0.08320
H1917       H  0.61107462  0.67630739  0.74101802     0.08320
H1918       H  0.51087041  0.75434841  0.82813468     0.08300
H1919       H  0.51934175  0.78311143  0.80064396     0.08300
H1920       H  0.54446999  0.77579119  0.83088577     0.05080
C1921       C  0.54725925  0.75899063  0.70891497    -0.20730
C1922       C  0.52793092  0.77573823  0.72745037    -0.07300
C1923       C  0.53657674  0.80522331  0.73549338     0.13570
C1924       C  0.56320502  0.81722525  0.72411982    -0.20780
C1925       C  0.58143266  0.80145647  0.70361190    -0.07300
C1926       C  0.57363090  0.77131480  0.69678114     0.13560
C1927       C  0.59212290  0.75206781  0.67608256    -0.24130
H1928       H  0.54087370  0.73647762  0.70247717     0.14850
H1929       H  0.56872505  0.84015176  0.73025889     0.14880
C1930       C  0.51830428  0.82534295  0.75550793    -0.24080
H1931       H  0.58361707  0.72862784  0.67498436     0.05090
H1932       H  0.61556516  0.75115932  0.68424222     0.08320
H1933       H  0.59141010  0.76124476  0.65300872     0.08320
H1934       H  0.49835544  0.81424097  0.76464481     0.08300
H1935       H  0.51094674  0.84544595  0.74275872     0.08300
H1936       H  0.53215840  0.83279139  0.77479395     0.05080
C1937       C  0.26094976  0.04134436  0.30049088    -0.20730
C1938       C  0.27277357  0.02983347  0.27368994    -0.07300
C1939       C  0.29526520  0.04669710  0.25897654     0.13570
C1940       C  0.30580946  0.07352613  0.27190100    -0.20780
C1941       C  0.29537449  0.08415179  0.29973156    -0.07300
C1942       C  0.27197151  0.06790661  0.31384610     0.13560
C1943       C  0.25933530  0.07727088  0.34371363    -0.24130
H1944       H  0.24327632  0.02919633  0.31153512     0.14850
H1945       H  0.32374045  0.08543691  0.26070226     0.14880
C1946       C  0.30968708  0.03687326  0.23015025    -0.24080
H1947       H  0.24096302  0.06219522  0.35105160     0.05090
H1948       H  0.25010172  0.10038092  0.34215165     0.08320
H1949       H  0.27702881  0.07639159  0.36114059     0.08320
H1950       H  0.30693153  0.05474049  0.21303182     0.08300
H1951       H  0.29999665  0.01597594  0.22105094     0.08300
H1952       H  0.33394062  0.03307420  0.23391972     0.05080
C1953       C  0.30229793  0.96317694  0.26535884    -0.20730
C1954       C  0.27322240  0.97159021  0.27374845    -0.07300
C1955       C  0.25740632  0.95253135  0.29365811     0.13570
C1956       C  0.27067483  0.92555646  0.30350028    -0.20780
C1957       C  0.29982190  0.91721656  0.29508189    -0.07300
C1958       C  0.31542994  0.93607503  0.27485729     0.13560
C1959       C  0.34648254  0.92869601  0.26395057    -0.24130
H1960       H  0.31522377  0.97807254  0.25139529     0.14850
H1961       H  0.25896670  0.91182446  0.31973254     0.14880
C1962       C  0.22785664  0.96140060  0.30714540    -0.24080
H1963       H  0.35487050  0.94568860  0.24781559     0.05090
H1964       H  0.34630598  0.90660538  0.25235592     0.08320
H1965       H  0.36241461  0.92806354  0.28291525     0.08320
H1966       H  0.21091985  0.96493968  0.28969887     0.08300
H1967       H  0.23047217  0.98211320  0.32058234     0.08300
H1968       H  0.21904404  0.94379066  0.32236385     0.05080
C1969       C  0.30351649  0.26803749  0.07586143    -0.20730
C1970       C  0.29462784  0.29691311  0.08528105    -0.07300
C1971       C  0.27277929  0.31222345  0.06782920     0.13570
C1972       C  0.26275702  0.29952000  0.04066767    -0.20780
C1973       C  0.27358133  0.27187000  0.03014562    -0.07300
C1974       C  0.29388967  0.25566834  0.04845326     0.13560
C1975       C  0.30738991  0.22608858  0.03923056    -0.24130
H1976       H  0.32022038  0.25599392  0.08874657     0.14850
H1977       H  0.24671002  0.31169585  0.02719859     0.14880
C1978       C  0.26071682  0.34262333  0.07665155    -0.24080
H1979       H  0.33201480  0.22856167  0.03728180     0.05090
H1980       H  0.29881436  0.21789655  0.01752889     0.08320
H1981       H  0.30246330  0.20883107  0.05646389     0.08320
H1982       H  0.27888982  0.35958677  0.07651771     0.08300
H1983       H  0.25050842  0.34133668  0.09925964     0.08300
H1984       H  0.24316766  0.35055935  0.06091375     0.05080
C1985       C  0.30300561  0.26245073  0.96283375    -0.20730
C1986       C  0.27423622  0.27167106  0.97169988    -0.07300
C1987       C  0.25854165  0.29147485  0.95221709     0.13570
C1988       C  0.27138936  0.30052981  0.92496350    -0.20780
C1989       C  0.30043880  0.29214034  0.91656140    -0.07300
C1990       C  0.31607773  0.27188503  0.93555985     0.13560
C1991       C  0.34699853  0.26076981  0.92799552    -0.24130
H1992       H  0.31570413  0.24801747  0.97758330     0.14850
H1993       H  0.25929049  0.31644108  0.91111951     0.14880
C1994       C  0.22931024  0.30598656  0.95990828    -0.24080
H1995       H  0.35553568  0.24474633  0.94503281     0.05090
H1996       H  0.36295216  0.27977481  0.92693711     0.08320
H1997       H  0.34652549  0.24892203  0.90610572     0.08320
H1998       H  0.22220607  0.30054907  0.98260532     0.08300
H1999       H  0.21181805  0.29885285  0.94375630     0.08300
H2000       H  0.23163945  0.33081363  0.95893558     0.05080
C2001       C  0.27245176  0.43037834  0.18949158    -0.20730
C2002       C  0.29820538  0.41715967  0.20205443    -0.07300
C2003       C  0.30923801  0.42907195  0.22945650     0.13570
C2004       C  0.29608695  0.45513898  0.24147715    -0.20780
C2005       C  0.27243444  0.46998913  0.22707112    -0.07300
C2006       C  0.25952861  0.45643130  0.20150523     0.13560
C2007       C  0.23236401  0.46873007  0.18590541    -0.24130
H2008       H  0.26295512  0.42122680  0.16907272     0.14850
H2009       H  0.30471769  0.46422994  0.26220459     0.14880
C2010       C  0.33535153  0.41542824  0.24594716    -0.24080
H2011       H  0.21477832  0.45113542  0.18489782     0.05090
H2012       H  0.23831535  0.47556516  0.16276548     0.08320
H2013       H  0.22271277  0.48819980  0.19757614     0.08320
H2014       H  0.35611226  0.41785925  0.23259526     0.08300
H2015       H  0.33084054  0.39132905  0.25053427     0.08300
H2016       H  0.33937553  0.42669406  0.26780189     0.05080
C2017       C  0.18349139  0.43591262  0.27755168    -0.20730
C2018       C  0.20003341  0.41661467  0.29641953    -0.07300
C2019       C  0.23053246  0.42374796  0.30159195     0.13570
C2020       C  0.24273583  0.45022289  0.28913948    -0.20780
C2021       C  0.22542463  0.47045197  0.27211637    -0.07300
C2022       C  0.19520921  0.46299376  0.26648720     0.13560
C2023       C  0.17434196  0.48399336  0.25022097    -0.24130
H2024       H  0.16017425  0.43110059  0.27313583     0.14850
H2025       H  0.26560764  0.45606338  0.29432476     0.14880
C2026       C  0.25044564  0.40407665  0.32046114    -0.24080
H2027       H  0.15197229  0.47378475  0.24654958     0.05090
H2028       H  0.18340301  0.48997805  0.22802558     0.08320
H2029       H  0.17085511  0.50455927  0.26379844     0.08320
H2030       H  0.24983840  0.38064398  0.31187888     0.08300
H2031       H  0.24313207  0.40465890  0.34417326     0.08300
H2032       H  0.27406291  0.41178855  0.31991909     0.05080
C2033       C  0.31295080  0.56702659  0.22406000    -0.20730
C2034       C  0.29809784  0.58136629  0.20023457    -0.07300
C2035       C  0.26973209  0.56997158  0.19146326     0.13570
C2036       C  0.25876242  0.54344176  0.20461622    -0.20780
C2037       C  0.27442888  0.52804559  0.22719684    -0.07300
C2038       C  0.30179251  0.54057372  0.23732325     0.13560
C2039       C  0.32060718  0.52552358  0.26080024    -0.24130
H2040       H  0.33470360  0.57521825  0.23098992     0.14850
H2041       H  0.23779765  0.53458526  0.19663489     0.14880
C2042       C  0.25048892  0.58545948  0.16836956    -0.24080
H2043       H  0.33905670  0.54029755  0.26863088     0.05090
H2044       H  0.33107106  0.50514342  0.25119072     0.08320
H2045       H  0.30688747  0.51978241  0.28049415     0.08320
H2046       H  0.26019872  0.58295467  0.14568697     0.08300
H2047       H  0.24815739  0.60964024  0.17411948     0.08300
H2048       H  0.22764923  0.57568427  0.16745456     0.05080
C2049       C  0.21132062  0.54838230  0.25660845    -0.20730
C2050       C  0.22856433  0.52851888  0.27401822    -0.07300
C2051       C  0.23560846  0.53671144  0.30369272     0.13570
C2052       C  0.22568526  0.56438345  0.31490415    -0.20780
C2053       C  0.20623013  0.58326843  0.29852171    -0.07300
C2054       C  0.19981807  0.57540620  0.26840218     0.13560
C2055       C  0.18022249  0.59453233  0.24865448    -0.24130
H2056       H  0.20510165  0.54178603  0.23416343     0.14850
H2057       H  0.23118841  0.56986843  0.33789825     0.14880
C2058       C  0.25181848  0.51567677  0.32459627    -0.24080
H2059       H  0.17955169  0.58591333  0.22530054     0.05090
H2060       H  0.18904829  0.61784759  0.24795865     0.08320
H2061       H  0.15692033  0.59453713  0.25713754     0.08320
H2062       H  0.27318502  0.50812497  0.31474725     0.08300
H2063       H  0.23751318  0.49589130  0.32926494     0.08300
H2064       H  0.25692970  0.52647241  0.34645026     0.05080
C2065       C  0.29414466  0.24768748  0.45320420    -0.20730
C2066       C  0.27610219  0.23136385  0.47321960    -0.07300
C2067       C  0.26708228  0.20210654  0.46485909     0.13570
C2068       C  0.27938835  0.18866840  0.43928617    -0.20780
C2069       C  0.30024711  0.20364664  0.42091238    -0.07300
C2070       C  0.30671358  0.23421452  0.42749995     0.13560
C2071       C  0.32701476  0.25287177  0.40807123    -0.24130
H2072       H  0.29930530  0.27090371  0.45818122     0.14850
H2073       H  0.27316258  0.16562100  0.43443266     0.14880
C2074       C  0.24385180  0.18451117  0.48177059    -0.24080
H2075       H  0.32733440  0.27679514  0.41524276     0.05090
H2076       H  0.31913146  0.25210240  0.38449952     0.08320
H2077       H  0.35032042  0.24447460  0.40954310     0.08320
H2078       H  0.22619463  0.17683974  0.46600655     0.08300
H2079       H  0.23245044  0.19800829  0.49906314     0.08300
H2080       H  0.25433667  0.16457198  0.49233002     0.05080
C2081       C  0.21201395  0.26107423  0.45738181    -0.20730
C2082       C  0.23234393  0.27909132  0.47344746    -0.07300
C2083       C  0.23992877  0.30750951  0.46186447     0.13570
C2084       C  0.22653685  0.31754750  0.43528805    -0.20780
C2085       C  0.20408960  0.30090462  0.42033230    -0.07300
C2086       C  0.19753276  0.27162728  0.43125721     0.13560
C2087       C  0.17499211  0.25147749  0.41620568    -0.24130
H2088       H  0.20657531  0.23901351  0.46603334     0.14850
H2089       H  0.23242763  0.33977269  0.42738938     0.14880
C2090       C  0.26147950  0.32796012  0.47790855    -0.24080
H2091       H  0.17438709  0.22881966  0.42660997     0.05090
H2092       H  0.18090251  0.24857687  0.39223550     0.08320
H2093       H  0.15224047  0.26119646  0.41824801     0.08320
H2094       H  0.28343130  0.31670734  0.48052391     0.08300
H2095       H  0.25228216  0.33398385  0.50015339     0.08300
H2096       H  0.26524720  0.34923570  0.46550048     0.05080
C2097       C  0.25906733  0.21745536  0.55112797    -0.20730
C2098       C  0.27843462  0.23250809  0.53124231    -0.07300
C2099       C  0.30909603  0.23454986  0.53905383     0.13570
C2100       C  0.31958816  0.22030856  0.56503511    -0.20780
C2101       C  0.30064127  0.20370758  0.58387481    -0.07300
C2102       C  0.26976353  0.20269539  0.57696310     0.13560
C2103       C  0.24792562  0.18622669  0.59666484    -0.24130
H2104       H  0.23543189  0.21646925  0.54607548     0.14850
H2105       H  0.34335363  0.22115245  0.56983305     0.14880
C2106       C  0.33169120  0.25186353  0.52103500    -0.24080
H2107       H  0.22449098  0.18958525  0.58910680     0.05090
H2108       H  0.24976436  0.19464725  0.62000980     0.08320
H2109       H  0.25245147  0.16172321  0.59613601     0.08320
H2110       H  0.34354389  0.26801691  0.53586635     0.08300
H2111       H  0.32153110  0.26524032  0.50299992     0.08300
H2112       H  0.34826599  0.23611117  0.51120607     0.05080
C2113       C  0.20171250  0.26976606  0.53595936    -0.20730
C2114       C  0.23125614  0.27855674  0.53092749    -0.07300
C2115       C  0.24582271  0.29631115  0.55297293     0.13570
C2116       C  0.22962867  0.30662044  0.57805484    -0.20780
C2117       C  0.19918947  0.29961890  0.58209528    -0.07300
C2118       C  0.18555641  0.27952836  0.56106758     0.13560
C2119       C  0.15369997  0.26851702  0.56372721    -0.24130
H2120       H  0.19096938  0.25523619  0.51967358     0.14850
H2121       H  0.24064469  0.32154107  0.59378861     0.14880
C2122       C  0.27798961  0.30580756  0.55047100    -0.24080
H2123       H  0.14837311  0.25094273  0.54683906     0.05090
H2124       H  0.13778530  0.28725259  0.55980356     0.08320
H2125       H  0.15008537  0.25838065  0.58613299     0.08320
H2126       H  0.28856730  0.29783653  0.52962648     0.08300
H2127       H  0.29084271  0.29668592  0.56970449     0.08300
H2128       H  0.27947049  0.33072239  0.55081208     0.05080
C2129       C  0.44859849  0.25696472  0.21534492    -0.20730
C2130       C  0.46981575  0.27477955  0.23060163    -0.07300
C2131       C  0.46386089  0.30577422  0.23408679     0.13570
C2132       C  0.43748131  0.31795219  0.22219377    -0.20780
C2133       C  0.41738382  0.30087459  0.20461525    -0.07300
C2134       C  0.42287053  0.26955843  0.20187129     0.13560
C2135       C  0.40243943  0.24923460  0.18424611    -0.24130
H2136       H  0.45326765  0.23332629  0.21207491     0.14850
H2137       H  0.43394066  0.34189120  0.22485249     0.14880
C2138       C  0.48573498  0.32682357  0.24904321    -0.24080
H2139       H  0.40912012  0.22526758  0.18627451     0.05090
H2140       H  0.40327137  0.25508585  0.16012638     0.08320
H2141       H  0.37920299  0.25138688  0.19269857     0.08320
H2142       H  0.50647080  0.32817896  0.23564463     0.08300
H2143       H  0.49116003  0.31913721  0.27191156     0.08300
H2144       H  0.47675498  0.35002928  0.25090673     0.05080
C2145       C  0.42809136  0.23037325  0.31055767    -0.20730
C2146       C  0.41625308  0.20307529  0.29980850    -0.07300
C2147       C  0.43077745  0.18903106  0.27519879     0.13570
C2148       C  0.45740776  0.20141950  0.26382823    -0.20780
C2149       C  0.47017819  0.22759995  0.27586621    -0.07300
C2150       C  0.45455570  0.24282679  0.29892867     0.13560
C2151       C  0.46522901  0.27191328  0.31238119    -0.24130
H2152       H  0.41729345  0.24154820  0.32924111     0.14850
H2153       H  0.46828993  0.19049137  0.24521458     0.14880
C2154       C  0.41939635  0.16025797  0.26139713    -0.24080
H2155       H  0.44785913  0.28948092  0.30930183     0.05090
H2156       H  0.46941639  0.26881853  0.33669379     0.08320
H2157       H  0.48603076  0.28008401  0.30204147     0.08320
H2158       H  0.39622863  0.16357728  0.25308192     0.08300
H2159       H  0.41994233  0.14184624  0.27811796     0.08300
H2160       H  0.43327762  0.15300679  0.24208147     0.05080
C2161       C  0.56011338  0.27905412  0.18456754    -0.20730
C2162       C  0.58181900  0.29416119  0.20202014    -0.07300
C2163       C  0.57647209  0.29698753  0.23321058     0.13570
C2164       C  0.54972488  0.28543457  0.24547140    -0.20780
C2165       C  0.52751016  0.27199437  0.22744478    -0.07300
C2166       C  0.53281457  0.26932433  0.19639463     0.13560
C2167       C  0.50953044  0.25725489  0.17500161    -0.24130
H2168       H  0.56329552  0.27671863  0.16064690     0.14850
H2169       H  0.54538540  0.28835733  0.26913283     0.14880
C2170       C  0.59829269  0.31250374  0.25376182    -0.24080
H2171       H  0.51849052  0.25451680  0.15197825     0.05090
H2172       H  0.49061825  0.27329872  0.17352301     0.08320
H2173       H  0.50123130  0.23500792  0.18236967     0.08320
H2174       H  0.59960160  0.33677413  0.24824267     0.08300
H2175       H  0.62070275  0.30199357  0.25158036     0.08300
H2176       H  0.59137139  0.31075605  0.27757634     0.05080
C2177       C  0.53898218  0.23698536  0.30220496    -0.20730
C2178       C  0.52809082  0.22624541  0.27467240    -0.07300
C2179       C  0.54564527  0.20494538  0.25887276     0.13570
C2180       C  0.57275291  0.19462784  0.27130349    -0.20780
C2181       C  0.58295759  0.20428522  0.29955438    -0.07300
C2182       C  0.56604806  0.22667745  0.31470794     0.13560
C2183       C  0.57541805  0.23919667  0.34469047    -0.24130
H2184       H  0.52619195  0.25357353  0.31431577     0.14850
H2185       H  0.58526862  0.17741321  0.25954412     0.14880
C2186       C  0.53562651  0.19178205  0.22950097    -0.24080
H2187       H  0.55989150  0.25695688  0.35270622     0.05090
H2188       H  0.59797888  0.24943727  0.34288602     0.08320
H2189       H  0.57555683  0.22113101  0.36178243     0.08320
H2190       H  0.53281462  0.20972677  0.21278323     0.08300
H2191       H  0.51443822  0.17938887  0.23242763     0.08300
H2192       H  0.55222354  0.17563045  0.22035984     0.05080
C2193       C  0.07003655  0.19220235  0.22973878    -0.20730
C2194       C  0.08138144  0.20078465  0.20162086    -0.07300
C2195       C  0.06549239  0.22306815  0.18526489     0.13570
C2196       C  0.03869295  0.23486117  0.19680724    -0.20780
C2197       C  0.02732098  0.22633572  0.22478837    -0.07300
C2198       C  0.04328043  0.20439061  0.24136815     0.13560
C2199       C  0.03127498  0.19179655  0.27019428    -0.24130
H2200       H  0.08138585  0.17460552  0.24207705     0.14850
H2201       H  0.02656569  0.25094870  0.18350412     0.14880
C2202       C  0.07563215  0.23402706  0.15495660    -0.24080
H2203       H  0.04768571  0.17668345  0.28122807     0.05090
H2204       H  0.01104925  0.17828157  0.26545888     0.08320
H2205       H  0.02579875  0.20995224  0.28615538     0.08320
H2206       H  0.07583211  0.21521163  0.13864138     0.08300
H2207       H  0.09828036  0.24406423  0.15681005     0.08300
H2208       H  0.06056725  0.25162292  0.14580156     0.05080
C2209       C  0.24131294  0.04257903  0.20186729    -0.20730
C2210       C  0.22783290  0.03007677  0.22724544    -0.07300
C2211       C  0.20413960  0.04610057  0.24103130     0.13570
C2212       C  0.19261479  0.07204938  0.22714036    -0.20780
C2213       C  0.20477273  0.08331481  0.20033330    -0.07300
C2214       C  0.23096489  0.06935067  0.18887378     0.13560
C2215       C  0.24863646  0.08238629  0.16318495    -0.24130
H2216       H  0.26011243  0.03131330  0.19181336     0.14850
H2217       H  0.17304147  0.08269244  0.23675456     0.14880
C2218       C  0.19002646  0.03642549  0.27002489    -0.24080
H2219       H  0.27053372  0.07090908  0.16047177     0.05090
H2220       H  0.25322634  0.10654064  0.16749126     0.08320
H2221       H  0.23653179  0.07971219  0.14170755     0.08320
H2222       H  0.19178953  0.05495265  0.28663023     0.08300
H2223       H  0.20093362  0.01647712  0.27985189     0.08300
H2224       H  0.16604209  0.03117990  0.26627478     0.05080
C2225       C  0.23789714  0.19999451  0.04309418    -0.20730
C2226       C  0.22680710  0.22687119  0.03096278    -0.07300
C2227       C  0.20387161  0.24201070  0.04712165     0.13570
C2228       C  0.19193972  0.22917032  0.07322695    -0.20780
C2229       C  0.20176875  0.20135775  0.08421111    -0.07300
C2230       C  0.22595774  0.18704599  0.06925804     0.13560
C2231       C  0.23871541  0.15741702  0.07958463    -0.24130
H2232       H  0.25589100  0.18859111  0.03187854     0.14850
H2233       H  0.17362552  0.24055206  0.08439338     0.14880
C2234       C  0.19037251  0.27132196  0.03773907    -0.24080
H2235       H  0.25782198  0.15004945  0.06549813     0.05090
H2236       H  0.22139631  0.13959483  0.07823171     0.08320
H2237       H  0.24703229  0.15956774  0.10292247     0.08320
H2238       H  0.16615855  0.26830833  0.03314896     0.08300
H2239       H  0.20087423  0.28017847  0.01762266     0.08300
H2240       H  0.19330338  0.28822360  0.05581967     0.05080
C2241       C  0.22677434  0.19068115  0.93021591    -0.20730
C2242       C  0.19890288  0.20164093  0.92052623    -0.07300
C2243       C  0.18637362  0.22659894  0.93631011     0.13570
C2244       C  0.20041580  0.23735829  0.96233171    -0.20780
C2245       C  0.22724190  0.22526409  0.97294579    -0.07300
C2246       C  0.24107099  0.20201918  0.95605641     0.13560
C2247       C  0.27013883  0.18780167  0.96541823    -0.24130
H2248       H  0.23674860  0.17184293  0.91849864     0.14850
H2249       H  0.18988598  0.25527387  0.97481542     0.14880
C2250       C  0.15781873  0.24209778  0.92685101    -0.24080
H2251       H  0.27802850  0.17102251  0.94876296     0.05090
H2252       H  0.26738433  0.17574940  0.98678879     0.08320
H2253       H  0.28779651  0.20493679  0.96749137     0.08320
H2254       H  0.13826223  0.22730234  0.93084573     0.08300
H2255       H  0.15917239  0.24852854  0.90287973     0.08300
H2256       H  0.15379412  0.26303790  0.93983314     0.05080
C2257       C  0.11686327  0.16639536  0.98448332    -0.20730
C2258       C  0.12190671  0.13878324  0.97013081    -0.07300
C2259       C  0.12583768  0.11249286  0.98735108     0.13570
C2260       C  0.12642774  0.11469044  0.01854821    -0.20780
C2261       C  0.12313367  0.14250967  0.03276508    -0.07300
C2262       C  0.11774468  0.16864879  0.01574776     0.13560
C2263       C  0.11499924  0.19910691  0.03033128    -0.24130
H2264       H  0.11412067  0.18656298  0.97115151     0.14850
H2265       H  0.13033921  0.09475180  0.03194606     0.14880
C2266       C  0.12914635  0.08213081  0.97300032    -0.24080
H2267       H  0.11194400  0.21723506  0.01352748     0.05090
H2268       H  0.13558447  0.20414523  0.04332593     0.08320
H2269       H  0.09540358  0.19942814  0.04554642     0.08320
H2270       H  0.15005295  0.08122842  0.95971934     0.08300
H2271       H  0.10952863  0.07789842  0.95833631     0.08300
H2272       H  0.13021997  0.06384292  0.98987777     0.05080
C2273       C  0.95566324  0.20585828  0.24150951    -0.20730
C2274       C  0.96947860  0.22880160  0.22498949    -0.07300
C2275       C  0.95462052  0.23963317  0.19913162     0.13570
C2276       C  0.92846788  0.22529477  0.18901578    -0.20780
C2277       C  0.91600436  0.20054599  0.20414668    -0.07300
C2278       C  0.92906179  0.19193360  0.23185795     0.13560
C2279       C  0.91525975  0.16833517  0.25174581    -0.24130
H2280       H  0.96577582  0.19859179  0.26222627     0.14850
H2281       H  0.91863955  0.23279050  0.16812121     0.14880
C2282       C  0.96556092  0.26596186  0.18121349    -0.24080
H2283       H  0.92641799  0.16742248  0.27396314     0.05090
H2284       H  0.91746383  0.14568511  0.24163271     0.08320
H2285       H  0.89131421  0.17366732  0.25558528     0.08320
H2286       H  0.97123319  0.25852680  0.15816376     0.08300
H2287       H  0.98537387  0.27659970  0.19117751     0.08300
H2288       H  0.94774436  0.28331300  0.18002802     0.05080
C2289       C  0.98381667  0.12845507  0.11836045    -0.20730
C2290       C  0.96941821  0.12178259  0.14543743    -0.07300
C2291       C  0.98645234  0.11484404  0.17112511     0.13570
C2292       C  0.01768587  0.11588560  0.16931184    -0.20780
C2293       C  0.03193474  0.12452063  0.14272845    -0.07300
C2294       C  0.01497297  0.13005786  0.11669812     0.13560
C2295       C  0.02958602  0.13767650  0.08725444    -0.24130
H2296       H  0.97051051  0.13365417  0.09871910     0.14850
H2297       H  0.03100383  0.11174845  0.18919142     0.14880
C2298       C  0.97188816  0.10859488  0.20087046    -0.24080
H2299       H  0.01289145  0.13980063  0.06894370     0.05090
H2300       H  0.04560530  0.11966762  0.08097205     0.08320
H2301       H  0.04162028  0.15940992  0.08899929     0.08320
H2302       H  0.95767788  0.08821465  0.19917898     0.08300
H2303       H  0.95794140  0.12811202  0.20757819     0.08300
H2304       H  0.98868954  0.10470968  0.21878995     0.05080
C2305       C  0.98267803  0.13242309  0.83448986    -0.20730
C2306       C  0.96862281  0.13742294  0.86229077    -0.07300
C2307       C  0.98583300  0.13669821  0.88885262     0.13570
C2308       C  0.01672489  0.13232792  0.88664659    -0.20780
C2309       C  0.03052736  0.12852341  0.85873763    -0.07300
C2310       C  0.01338353  0.12798588  0.83238430     0.13560
C2311       C  0.02751661  0.12463480  0.80189393    -0.24130
H2312       H  0.96974035  0.13291530  0.81397022     0.14850
H2313       H  0.03043834  0.13308963  0.90668388     0.14880
C2314       C  0.97218432  0.14075020  0.91939794    -0.24080
H2315       H  0.01065703  0.12555302  0.78362900     0.05090
H2316       H  0.03920005  0.10267153  0.80036775     0.08320
H2317       H  0.04376671  0.14307303  0.79813439     0.08320
H2318       H  0.95423241  0.12388353  0.92293264     0.08300
H2319       H  0.96296705  0.16379766  0.92137264     0.08300
H2320       H  0.98896723  0.13789414  0.93752900     0.05080
C2321       C  0.86852703  0.10696606  0.98656239    -0.20730
C2322       C  0.87869726  0.13252871  0.97117746    -0.07300
C2323       C  0.89430171  0.15522670  0.98750935     0.13570
C2324       C  0.89576047  0.15332944  0.01871981    -0.20780
C2325       C  0.88154697  0.13006207  0.03402586    -0.07300
C2326       C  0.86964609  0.10548268  0.01784367     0.13560
C2327       C  0.85795651  0.07775073  0.03335918    -0.24130
H2328       H  0.85803391  0.08874802  0.97430953     0.14850
H2329       H  0.90579580  0.17155502  0.03136817     0.14880
C2330       C  0.90852918  0.18229964  0.97300121    -0.24080
H2331       H  0.85201403  0.05982024  0.01706409     0.05090
H2332       H  0.83750009  0.08298005  0.04633902     0.08320
H2333       H  0.87538138  0.06864654  0.04858585     0.08320
H2334       H  0.89109128  0.19724504  0.96346960     0.08300
H2335       H  0.92424254  0.17492596  0.95530320     0.08300
H2336       H  0.92150597  0.19597394  0.98930244     0.05080
C2337       C  0.83192745  0.98228617  0.12149889    -0.20730
C2338       C  0.85793331  0.96659443  0.12895461    -0.07300
C2339       C  0.88496110  0.98218847  0.13429100     0.13570
C2340       C  0.88466766  0.01358653  0.13409150    -0.20780
C2341       C  0.85813207  0.02927029  0.12850340    -0.07300
C2342       C  0.83161195  0.01358017  0.12143820     0.13560
C2343       C  0.80242796  0.02958895  0.11628708    -0.24130
H2344       H  0.81132738  0.97002460  0.11756575     0.14850
H2345       H  0.90494785  0.02597307  0.13913573     0.14880
C2346       C  0.91401447  0.96595111  0.14007094    -0.24080
H2347       H  0.78362756  0.01366876  0.11268848     0.05090
H2348       H  0.80401319  0.04424085  0.09627636     0.08320
H2349       H  0.79723218  0.04328954  0.13628017     0.08320
H2350       H  0.91861952  0.94997887  0.12150076     0.08300
H2351       H  0.91290451  0.95354619  0.16154155     0.08300
H2352       H  0.93314253  0.98180764  0.14160753     0.05080
C2353       C  0.22903047  0.92738415  0.19366491    -0.20730
C2354       C  0.19978353  0.91902817  0.20166452    -0.07300
C2355       C  0.18420036  0.93757494  0.22237401     0.13570
C2356       C  0.19782660  0.96387320  0.23339569    -0.20780
C2357       C  0.22711621  0.97209393  0.22571540    -0.07300
C2358       C  0.24262787  0.95376278  0.20479739     0.13560
C2359       C  0.27225074  0.96284986  0.19168871    -0.24130
H2360       H  0.24074498  0.91405195  0.17706981     0.14850
H2361       H  0.18507099  0.97843247  0.24792652     0.14880
C2362       C  0.15258878  0.93095875  0.23214032    -0.24080
H2363       H  0.28076080  0.94589701  0.17552338     0.05090
H2364       H  0.28928948  0.96522740  0.20923816     0.08320
H2365       H  0.26986480  0.98422509  0.17934945     0.08320
H2366       H  0.15166140  0.90863639  0.24317015     0.08300
H2367       H  0.13727963  0.93139871  0.21260308     0.08300
H2368       H  0.14420872  0.94780494  0.24849187     0.05080
C2369       C  0.01514124  0.89013888  0.16024948    -0.20730
C2370       C  0.03024973  0.87765848  0.13575711    -0.07300
C2371       C  0.01383299  0.86740336  0.11065996     0.13570
C2372       C  0.98257947  0.86777296  0.11177677    -0.20780
C2373       C  0.96733370  0.87775999  0.13739005    -0.07300
C2374       C  0.98384202  0.89005883  0.16161534     0.13560
C2375       C  0.96901778  0.90122518  0.18983196    -0.24130
H2376       H  0.02791434  0.89808290  0.17933863     0.14850
H2377       H  0.96994814  0.85901319  0.09294945     0.14880
C2378       C  0.02899387  0.85593129  0.08269064    -0.24080
H2379       H  0.98562264  0.90881161  0.20674787     0.05090
H2380       H  0.95561731  0.88291335  0.20005927     0.08320
H2381       H  0.95441182  0.92069210  0.18462437     0.08320
H2382       H  0.04094718  0.83459248  0.08729040     0.08300
H2383       H  0.04504286  0.87300125  0.07433117     0.08300
H2384       H  0.01262725  0.85129021  0.06453446     0.05080
C2385       C  0.11368100  0.01649926  0.13205134    -0.20730
C2386       C  0.13951359  0.03172789  0.12309038    -0.07300
C2387       C  0.16413342  0.01551640  0.11154708     0.13570
C2388       C  0.16307477  0.98410001  0.11142967    -0.20780
C2389       C  0.13822880  0.96884644  0.12289756    -0.07300
C2390       C  0.11260006  0.98513561  0.13195601     0.13560
C2391       C  0.08411483  0.96973608  0.14157640    -0.24130
H2392       H  0.09466226  0.02923960  0.14018346     0.14850
H2393       H  0.18252372  0.97142044  0.10430825     0.14880
C2394       C  0.19233347  0.03100174  0.10144848    -0.24080
H2395       H  0.06572785  0.98612396  0.14523513     0.05090
H2396       H  0.08749296  0.95758195  0.16296225     0.08320
H2397       H  0.07677042  0.95372655  0.12393732     0.08320
H2398       H  0.20160100  0.04459615  0.12011454     0.08300
H2399       H  0.18744541  0.04576940  0.08204806     0.08300
H2400       H  0.20974465  0.01465775  0.09439224     0.05080
C2401       C  0.87015000  0.98312196  0.88883318    -0.20730
C2402       C  0.87875588  0.96853495  0.86241054    -0.07300
C2403       C  0.88935917  0.98549685  0.83793165     0.13570
C2404       C  0.88863867  0.01686701  0.83962870    -0.20780
C2405       C  0.87733848  0.03154601  0.86502870    -0.07300
C2406       C  0.86945384  0.01449391  0.89062053     0.13560
C2407       C  0.86017339  0.02890533  0.91980902    -0.24130
H2408       H  0.86273089  0.96983564  0.90776140     0.14850
H2409       H  0.89506930  0.02992022  0.82020064     0.14880
C2410       C  0.89930127  0.97084608  0.80919145    -0.24080
H2411       H  0.85796815  0.01203232  0.93798385     0.05090
H2412       H  0.83811277  0.04003497  0.91745537     0.08320
H2413       H  0.87725807  0.04557028  0.92692798     0.08320
H2414       H  0.88079575  0.95711022  0.79997963     0.08300
H2415       H  0.91905943  0.95636414  0.81343182     0.08300
H2416       H  0.90566721  0.98766941  0.79199159     0.05080
C2417       C  0.83692948  0.87764593  0.98239887    -0.20730
C2418       C  0.86324276  0.87099583  0.96720049    -0.07300
C2419       C  0.88963126  0.86439476  0.98313812     0.13570
C2420       C  0.88865123  0.86336320  0.01446183    -0.20780
C2421       C  0.86170883  0.86804592  0.02999893    -0.07300
C2422       C  0.83541317  0.87585110  0.01349595     0.13560
C2423       C  0.80510143  0.88123412  0.02755400    -0.24130
H2424       H  0.81685125  0.88244136  0.96959364     0.14850
H2425       H  0.90885506  0.85792880  0.02672681     0.14880
C2426       C  0.91873438  0.85854074  0.96715604    -0.24080
H2427       H  0.78773520  0.88689329  0.01066735     0.05090
H2428       H  0.80626937  0.90045656  0.04339850     0.08320
H2429       H  0.79734211  0.86059618  0.03914001     0.08320
H2430       H  0.92436100  0.87803729  0.95272427     0.08300
H2431       H  0.91691658  0.83802945  0.95311335     0.08300
H2432       H  0.93745360  0.85509980  0.98315351     0.05080
C2433       C  0.98286952  0.88215100  0.86729263    -0.20730
C2434       C  0.96778631  0.85525846  0.87342083    -0.07300
C2435       C  0.98408104  0.82916138  0.88104889     0.13570
C2436       C  0.01533350  0.83031153  0.88087017    -0.20780
C2437       C  0.03038127  0.85666852  0.87268864    -0.07300
C2438       C  0.01408533  0.88323119  0.86682010     0.13560
C2439       C  0.02938333  0.91269626  0.86010950    -0.24130
H2440       H  0.97010333  0.90214938  0.86185490     0.14850
H2441       H  0.02806787  0.81005121  0.88531249     0.14880
C2442       C  0.96880057  0.79961567  0.88728439    -0.24080
H2443       H  0.01307902  0.93144384  0.85823391     0.05090
H2444       H  0.04157685  0.91134154  0.83854874     0.08320
H2445       H  0.04528814  0.91829993  0.87839775     0.08320
H2446       H  0.95484998  0.79298219  0.86776596     0.08300
H2447       H  0.95451876  0.80169535  0.90748512     0.08300
H2448       H  0.98517154  0.78130510  0.89144229     0.05080
C2449       C  0.13374215  0.98021140  0.88982057    -0.20730
C2450       C  0.12396154  0.96642295  0.86335761    -0.07300
C2451       C  0.11541252  0.98412326  0.83871860     0.13570
C2452       C  0.11813556  0.01530201  0.84081766    -0.20780
C2453       C  0.12993222  0.02937848  0.86662978    -0.07300
C2454       C  0.13699130  0.01140725  0.89183840     0.13560
C2455       C  0.14817658  0.02437407  0.92083848    -0.24130
H2456       H  0.14009525  0.96625243  0.90867927     0.14850
H2457       H  0.11205919  0.02857190  0.82142544     0.14880
C2458       C  0.10540211  0.97033722  0.80947574    -0.24080
H2459       H  0.15199804  0.00680421  0.93807583     0.05090
H2460       H  0.13102071  0.03989928  0.92960417     0.08320
H2461       H  0.16969947  0.03625966  0.91734213     0.08320
H2462       H  0.08455703  0.95727098  0.81294448     0.08300
H2463       H  0.12317434  0.95533809  0.80059305     0.08300
H2464       H  0.10071142  0.98767581  0.79222691     0.05080
C2465       C  0.11577934  0.84181802  0.98248998    -0.20730
C2466       C  0.13106386  0.86559697  0.96831208    -0.07300
C2467       C  0.14229459  0.88954653  0.98600671     0.13570
C2468       C  0.14002531  0.88764425  0.01720828    -0.20780
C2469       C  0.12702567  0.86260382  0.03115345    -0.07300
C2470       C  0.11391707  0.83980440  0.01361464     0.13560
C2471       C  0.09972236  0.81233415  0.02737227    -0.24130
H2472       H  0.10624462  0.82378014  0.96923426     0.14850
H2473       H  0.14959631  0.90531136  0.03096915     0.14880
C2474       C  0.15759110  0.91664297  0.97273743    -0.24080
H2475       H  0.09179655  0.79619835  0.01009496     0.05090
H2476       H  0.08008675  0.81903715  0.04100918     0.08320
H2477       H  0.11624865  0.80045596  0.04167711     0.08320
H2478       H  0.14206105  0.92848254  0.95733603     0.08300
H2479       H  0.17804748  0.90961753  0.96053685     0.08300
H2480       H  0.16454669  0.93300473  0.99022599     0.05080
C2481       C  0.04001329  0.79135563  0.75986563    -0.20730
C2482       C  0.02660386  0.76779316  0.77604771    -0.07300
C2483       C  0.04182262  0.75650917  0.80143349     0.13570
C2484       C  0.06894617  0.76943201  0.81034580    -0.20780
C2485       C  0.08114543  0.79489162  0.79611944    -0.07300
C2486       C  0.06661077  0.80548933  0.76983649     0.13560
C2487       C  0.07812534  0.83215954  0.75263894    -0.24130
H2488       H  0.02907758  0.79935420  0.73974074     0.14850
H2489       H  0.07968199  0.76035516  0.83014707     0.14880
C2490       C  0.03024850  0.73117783  0.82041198    -0.24080
H2491       H  0.06470848  0.83638692  0.73212541     0.05090
H2492       H  0.10159277  0.82806187  0.74565939     0.08320
H2493       H  0.07686611  0.85271479  0.76669932     0.08320
H2494       H  0.04725189  0.71301931  0.82163526     0.08300
H2495       H  0.00968297  0.72126635  0.81150698     0.08300
H2496       H  0.02567684  0.73952882  0.84340264     0.05080
C2497       C  0.96245389  0.79790704  0.76818862    -0.20730
C2498       C  0.96862447  0.76799096  0.77612660    -0.07300
C2499       C  0.94665009  0.75206898  0.79277752     0.13570
C2500       C  0.92099015  0.76719840  0.80303572    -0.20780
C2501       C  0.91552052  0.79753819  0.79631468    -0.07300
C2502       C  0.93616454  0.81268814  0.77745595     0.13560
C2503       C  0.93148142  0.84477667  0.76766140    -0.24130
H2504       H  0.97835172  0.80987663  0.75438046     0.14850
H2505       H  0.90537748  0.75525614  0.81727280     0.14880
C2506       C  0.94911863  0.71935609  0.80083443    -0.24080
H2507       H  0.94960621  0.85262778  0.75259858     0.05090
H2508       H  0.93118173  0.85998898  0.78730848     0.08320
H2509       H  0.91007550  0.84667541  0.75519971     0.08320
H2510       H  0.96868175  0.70831645  0.79086372     0.08300
H2511       H  0.92906743  0.70719448  0.79251434     0.08300
H2512       H  0.95038999  0.71693392  0.82554295     0.05080
C2513       C  0.04766421  0.70652588  0.74457658    -0.20730
C2514       C  0.02713892  0.72426319  0.72847246    -0.07300
C2515       C  0.03531945  0.73393885  0.69950598     0.13570
C2516       C  0.06157795  0.72287234  0.68632413    -0.20780
C2517       C  0.08056102  0.70231043  0.70109256    -0.07300
C2518       C  0.07393715  0.69510765  0.73132167     0.13560
C2519       C  0.09392655  0.67518139  0.74987003    -0.24130
H2520       H  0.04263980  0.70058538  0.76745472     0.14850
H2521       H  0.06650533  0.72974684  0.66360038     0.14880
C2522       C  0.01733587  0.75638554  0.68183752    -0.24080
H2523       H  0.08662093  0.67436972  0.77362049     0.05090
H2524       H  0.11716778  0.68393563  0.74945231     0.08320
H2525       H  0.09335736  0.65179714  0.74123458     0.08320
H2526       H  0.99913429  0.76665414  0.69498470     0.08300
H2527       H  0.00776626  0.74533979  0.66167457     0.08300
H2528       H  0.03209788  0.77509631  0.67464453     0.05080
C2529       C  0.94808352  0.74020950  0.71660977    -0.20730
C2530       C  0.96910495  0.72069306  0.72994386    -0.07300
C2531       C  0.96203554  0.68960487  0.73124835     0.13570
C2532       C  0.93535320  0.67907192  0.71842359    -0.20780
C2533       C  0.91505543  0.69837310  0.70410957    -0.07300
C2534       C  0.92141347  0.72950490  0.70355091     0.13560
C2535       C  0.90013542  0.75160298  0.68942242    -0.24130
H2536       H  0.95273186  0.76405605  0.71585705     0.14850
H2537       H  0.93099962  0.65507994  0.71858297     0.14880
C2538       C  0.98139968  0.66657606  0.74653240    -0.24080
H2539       H  0.90760735  0.77517717  0.69283751     0.05090
H2540       H  0.87763931  0.74918344  0.69961799     0.08320
H2541       H  0.89862665  0.74770538  0.66494294     0.08320
H2542       H  0.99957651  0.67663282  0.75973139     0.08300
H2543       H  0.99098122  0.65100738  0.72961861     0.08300
H2544       H  0.96767035  0.65343406  0.76256166     0.05080
C2545       C  0.75978027  0.03788729  0.80668855    -0.20730
C2546       C  0.76827475  0.03045905  0.77735067    -0.07300
C2547       C  0.78803180  0.04998063  0.76207941     0.13570
C2548       C  0.79889294  0.07585014  0.77660142    -0.20780
C2549       C  0.79215236  0.08225812  0.80677075    -0.07300
C2550       C  0.77157769  0.06310486  0.82173657     0.13560
C2551       C  0.76309137  0.06769217  0.85410045    -0.24130
H2552       H  0.74449381  0.02326547  0.81842378     0.14850
H2553       H  0.81469619  0.08996807  0.76476155     0.14880
C2554       C  0.79970678  0.04350247  0.73115620    -0.24080
H2555       H  0.74655881  0.05075806  0.86179630     0.05090
H2556       H  0.75286151  0.09023746  0.85707800     0.08320
H2557       H  0.78314664  0.06546676  0.86860118     0.08320
H2558       H  0.79252811  0.06158748  0.71562282     0.08300
H2559       H  0.79190126  0.02172758  0.72227723     0.08300
H2560       H  0.82451725  0.04269453  0.73169058     0.05080
C2561       C  0.79598407  0.96228891  0.76183310    -0.20730
C2562       C  0.76953217  0.97274183  0.77510924    -0.07300
C2563       C  0.75639610  0.95519973  0.79800555     0.13570
C2564       C  0.77157009  0.92963197  0.80892382    -0.20780
C2565       C  0.79910406  0.92001953  0.79680432    -0.07300
C2566       C  0.81015037  0.93564933  0.77130223     0.13560
C2567       C  0.83624235  0.92427845  0.75309787    -0.24130
H2568       H  0.80550072  0.97491858  0.74346779     0.14850
H2569       H  0.76213228  0.91777274  0.82786279     0.14880
C2570       C  0.72668080  0.96290986  0.81179376    -0.24080
H2571       H  0.83907211  0.93730446  0.73209036     0.05090
H2572       H  0.83237099  0.90045400  0.74673004     0.08320
H2573       H  0.85746717  0.92628670  0.76565587     0.08320
H2574       H  0.71106475  0.94373447  0.80879456     0.08300
H2575       H  0.71618870  0.98289844  0.80152033     0.08300
H2576       H  0.72962279  0.96730363  0.83609810     0.05080
C2577       C  0.70898003  0.05281349  0.74483536    -0.20730
C2578       C  0.72474717  0.03141101  0.72759348    -0.07300
C2579       C  0.72961001  0.03798178  0.69693992     0.13570
C2580       C  0.71731555  0.06404501  0.68432865    -0.20780
C2581       C  0.69918354  0.08410542  0.70065635    -0.07300
C2582       C  0.69558686  0.07855810  0.73176046     0.13560
C2583       C  0.67760805  0.09931734  0.75139277    -0.24130
H2584       H  0.70604199  0.04876579  0.76854934     0.14850
H2585       H  0.72118820  0.06790268  0.66072503     0.14880
C2586       C  0.74794405  0.01853181  0.67631207    -0.24080
H2587       H  0.67895393  0.09271143  0.77533181     0.05090
H2588       H  0.65368717  0.09861785  0.74484658     0.08320
H2589       H  0.68624583  0.12262310  0.74938273     0.08320
H2590       H  0.75973580  0.00032248  0.68793553     0.08300
H2591       H  0.76543021  0.03242451  0.66538532     0.08300
H2592       H  0.73331126  0.00868544  0.65874419     0.05080
C2593       C  0.73972548  0.95227287  0.71470676    -0.20730
C2594       C  0.72180567  0.97311031  0.73035621    -0.07300
C2595       C  0.69121385  0.96605800  0.73457683     0.13570
C2596       C  0.67908651  0.94029106  0.72100310    -0.20780
C2597       C  0.69647514  0.92093135  0.70322345    -0.07300
C2598       C  0.72749858  0.92661040  0.70082593     0.13560
C2599       C  0.74790462  0.90583597  0.68367982    -0.24130
H2600       H  0.76333072  0.95665592  0.71209431     0.14850
H2601       H  0.65527656  0.93621775  0.72314455     0.14880
C2602       C  0.67044112  0.98489071  0.75333562    -0.24080
H2603       H  0.77173867  0.91241756  0.68618636     0.05090
H2604       H  0.74257018  0.90643048  0.65944271     0.08320
H2605       H  0.74543621  0.88253610  0.69219636     0.08320
H2606       H  0.68197388  0.00313200  0.76541351     0.08300
H2607       H  0.65974023  0.97050759  0.77056827     0.08300
H2608       H  0.65278292  0.99479241  0.73890315     0.05080
C2609       C  0.79320376  0.76498161  0.03596994    -0.20730
C2610       C  0.76575860  0.77813169  0.02828957    -0.07300
C2611       C  0.75316403  0.79932487  0.04850246     0.13570
C2612       C  0.76907103  0.80787885  0.07440936    -0.20780
C2613       C  0.79754985  0.79623244  0.08111113    -0.07300
C2614       C  0.80914758  0.77340420  0.06188748     0.13560
C2615       C  0.83855600  0.75782264  0.06779008    -0.24130
H2616       H  0.80275734  0.74833669  0.02113540     0.14850
H2617       H  0.75963689  0.82522672  0.08861895     0.14880
C2618       C  0.72350779  0.81437865  0.04344726    -0.24080
H2619       H  0.84195468  0.73831781  0.05260070     0.05090
H2620       H  0.83910140  0.74923117  0.09111050     0.08320
H2621       H  0.85748535  0.77342936  0.06386757     0.08320
H2622       H  0.70854878  0.80982080  0.06274079     0.08300
H2623       H  0.71221997  0.80641990  0.02296035     0.08300
H2624       H  0.72675922  0.83905774  0.04166716     0.05080
C2625       C  0.76764452  0.81503201  0.92793079    -0.20730
C2626       C  0.79343904  0.80105178  0.91643885    -0.07300
C2627       C  0.80401005  0.77490770  0.93138111     0.13570
C2628       C  0.78968863  0.76496675  0.95782302    -0.20780
C2629       C  0.76495204  0.78014336  0.97018765    -0.07300
C2630       C  0.75392846  0.80559604  0.95466574     0.13560
C2631       C  0.72896206  0.82447250  0.96684407    -0.24130
H2632       H  0.75923194  0.83505585  0.91698913     0.14850
H2633       H  0.79834132  0.74539775  0.96929331     0.14880
C2634       C  0.83103118  0.75786057  0.92054781    -0.24080
H2635       H  0.72256898  0.84287361  0.95132357     0.05090
H2636       H  0.73640489  0.83518625  0.98794328     0.08320
H2637       H  0.70893344  0.81049324  0.97036959     0.08320
H2638       H  0.85117646  0.77237879  0.92176273     0.08300
H2639       H  0.82735791  0.75021403  0.89715261     0.08300
H2640       H  0.83548291  0.73762744  0.93439939     0.05080
C2641       C  0.72097807  0.69116314  0.06461286    -0.20730
C2642       C  0.69673560  0.70353900  0.08068670    -0.07300
C2643       C  0.68532709  0.73170857  0.07088693     0.13570
C2644       C  0.69701842  0.74519436  0.04484890    -0.20780
C2645       C  0.71966324  0.73170921  0.02769162    -0.07300
C2646       C  0.73214110  0.70447516  0.03824342     0.13560
C2647       C  0.75636477  0.68841445  0.02117365    -0.24130
H2648       H  0.73020468  0.66977879  0.07162608     0.14850
H2649       H  0.68706124  0.76578561  0.03704179     0.14880
C2650       C  0.65994988  0.74745740  0.08664760    -0.24080
H2651       H  0.76499997  0.66864171  0.03363467     0.05090
H2652       H  0.77541936  0.70371037  0.01696217     0.08320
H2653       H  0.74726412  0.68005960  0.99964809     0.08320
H2654       H  0.66588952  0.75131121  0.11049129     0.08300
H2655       H  0.63923241  0.73382475  0.08498096     0.08300
H2656       H  0.65500516  0.76972492  0.07656143     0.05080
C2657       C  0.73681576  0.71616947  0.95160048    -0.20730
C2658       C  0.71806052  0.73403020  0.96964480    -0.07300
C2659       C  0.68857327  0.73963502  0.95947057     0.13570
C2660       C  0.67889033  0.72735576  0.93205238    -0.20780
C2661       C  0.69661426  0.70709336  0.91563618    -0.07300
C2662       C  0.72645349  0.70227175  0.92515461     0.13560
C2663       C  0.74761732  0.68263682  0.90760407    -0.24130
H2664       H  0.75940479  0.71174747  0.95899220     0.14850
H2665       H  0.65601995  0.73123084  0.92501121     0.14880
C2666       C  0.66610272  0.75641340  0.97818879    -0.24080
H2667       H  0.77070383  0.68371285  0.91675010     0.05090
H2668       H  0.74838386  0.69025895  0.88395893     0.08320
H2669       H  0.74047075  0.65880221  0.90851637     0.08320
H2670       H  0.67517828  0.77816724  0.98593272     0.08300
H2671       H  0.65980663  0.74243146  0.99768923     0.08300
H2672       H  0.64523782  0.76111824  0.96552227     0.05080
C2673       C  0.23753632  0.78662344  0.04687579    -0.20730
C2674       C  0.21957066  0.76781016  0.02889047    -0.07300
C2675       C  0.19039698  0.76114116  0.03896200     0.13570
C2676       C  0.18028961  0.77300619  0.06628210    -0.20780
C2677       C  0.19718406  0.79384566  0.08319912    -0.07300
C2678       C  0.22678000  0.79998377  0.07351819     0.13560
C2679       C  0.24714330  0.82094062  0.09048930    -0.24130
H2680       H  0.25985541  0.79202531  0.03942125     0.14850
H2681       H  0.15765838  0.76769669  0.07305006     0.14880
C2682       C  0.16861749  0.74333793  0.02030200    -0.24080
H2683       H  0.27000814  0.82133015  0.08080429     0.05090
H2684       H  0.24907140  0.81346215  0.11411806     0.08320
H2685       H  0.23835830  0.84424466  0.08957968     0.08320
H2686       H  0.17858961  0.72186907  0.01287082     0.08300
H2687       H  0.16180541  0.75692157  0.00067545     0.08300
H2688       H  0.14789947  0.73791284  0.03286504     0.05080
C2689       C  0.19945300  0.75477910  0.95378206    -0.20730
C2690       C  0.22198758  0.76873702  0.97075504    -0.07300
C2691       C  0.23506958  0.79524235  0.95924808     0.13570
C2692       C  0.22454232  0.80746690  0.93210150    -0.20780
C2693       C  0.20028337  0.79476929  0.91625723    -0.07300
C2694       C  0.18829406  0.76727403  0.92704226     0.13560
C2695       C  0.16273913  0.75138455  0.91166012    -0.24130
H2696       H  0.18921585  0.73459855  0.96217715     0.14850
H2697       H  0.23415027  0.82839184  0.92429729     0.14880
C2698       C  0.25921620  0.81171078  0.97608403    -0.24080
H2699       H  0.15725919  0.72967715  0.92262022     0.05090
H2700       H  0.16880280  0.74640850  0.88806962     0.08320
H2701       H  0.14228836  0.76549797  0.91250148     0.08320
H2702       H  0.27801103  0.79637894  0.98129824     0.08300
H2703       H  0.24986038  0.82105795  0.99707108     0.08300
H2704       H  0.26828333  0.83083619  0.96297395     0.05080
C2705       C  0.28999239  0.73853842  0.04221191    -0.20730
C2706       C  0.26641461  0.72172619  0.02980409    -0.07300
C2707       C  0.25671935  0.69584818  0.04548938     0.13570
C2708       C  0.27100858  0.68731565  0.07230264    -0.20780
C2709       C  0.29557802  0.70325628  0.08399984    -0.07300
C2710       C  0.30431054  0.73011926  0.06909946     0.13560
C2711       C  0.32853909  0.75040355  0.08115335    -0.24130
H2712       H  0.29762389  0.75839006  0.03052127     0.14850
H2713       H  0.26406495  0.66667366  0.08309420     0.14880
C2714       C  0.23242269  0.67590636  0.03357025    -0.24080
H2715       H  0.32976550  0.77187467  0.06854690     0.05090
H2716       H  0.35074263  0.73953924  0.07918443     0.08320
H2717       H  0.32384852  0.75600750  0.10492294     0.08320
H2718       H  0.23995124  0.66558993  0.01232604     0.08300
H2719       H  0.21172595  0.68902522  0.03034061     0.08300
H2720       H  0.22708949  0.65723739  0.04915651     0.05080
C2721       C  0.29487467  0.73447831  0.96426940    -0.20730
C2722       C  0.26721273  0.72182749  0.97183899    -0.07300
C2723       C  0.25443833  0.70052909  0.95184965     0.13570
C2724       C  0.27023061  0.69166479  0.92603756    -0.20780
C2725       C  0.29882022  0.70298990  0.91928953    -0.07300
C2726       C  0.31078380  0.72566621  0.93852891     0.13560
C2727       C  0.34065895  0.74048186  0.93310705    -0.24130
H2728       H  0.30460998  0.75105207  0.97908948     0.14850
H2729       H  0.26051615  0.67445484  0.91183081     0.14880
C2730       C  0.22473509  0.68564635  0.95709336    -0.24080
H2731       H  0.34484041  0.75927493  0.94898204     0.05090
H2732       H  0.34135305  0.74996638  0.91013879     0.08320
H2733       H  0.35904648  0.72405210  0.93636067     0.08320
H2734       H  0.20969032  0.69010467  0.93780451     0.08300
H2735       H  0.21361918  0.69375645  0.97760205     0.08300
H2736       H  0.22789005  0.66096678  0.95903027     0.05080
C2737       C  0.80450326  0.23318726  0.03316151    -0.20730
C2738       C  0.77392695  0.22809285  0.02906429    -0.07300
C2739       C  0.75871139  0.21020364  0.05045316     0.13570
C2740       C  0.77440237  0.19870454  0.07541203    -0.20780
C2741       C  0.80545015  0.20295887  0.07893999    -0.07300
C2742       C  0.82058477  0.22069243  0.05704372     0.13560
C2743       C  0.85402381  0.22570288  0.05706060    -0.24130
H2744       H  0.81639911  0.24644916  0.01687777     0.14850
H2745       H  0.76249710  0.18467494  0.09123395     0.14880
C2746       C  0.72655677  0.20104925  0.04675543    -0.24080
H2747       H  0.86144735  0.24010768  0.03818303     0.05090
H2748       H  0.86582579  0.20391407  0.05451584     0.08320
H2749       H  0.86096608  0.23713223  0.07805139     0.08320
H2750       H  0.71725702  0.20801258  0.02492838     0.08300
H2751       H  0.71294493  0.21100328  0.06503483     0.08300
H2752       H  0.72474854  0.17617802  0.04779557     0.05080
C2753       C  0.80686036  0.23005603  0.93012510    -0.20730
C2754       C  0.79639560  0.20194915  0.92009503    -0.07300
C2755       C  0.77061658  0.18967111  0.93428203     0.13570
C2756       C  0.75940242  0.20319492  0.96040434    -0.20780
C2757       C  0.77159739  0.22978671  0.97187201    -0.07300
C2758       C  0.79455174  0.24430511  0.95547716     0.13560
C2759       C  0.80730484  0.27427719  0.96445657    -0.24130
H2760       H  0.82599267  0.24026275  0.91928041     0.14850
H2761       H  0.74102748  0.19270895  0.97227001     0.14880
C2762       C  0.75456923  0.16224618  0.92244599    -0.24080
H2763       H  0.80341750  0.29081012  0.94626844     0.05090
H2764       H  0.83173903  0.27209361  0.96833839     0.08320
H2765       H  0.79712310  0.28313075  0.98516765     0.08320
H2766       H  0.76758536  0.14155343  0.92706955     0.08300
H2767       H  0.75061475  0.16465590  0.89801400     0.08300
H2768       H  0.73242327  0.15931177  0.93329850     0.05080
C2769       C  0.68138794  0.28363114  0.06335782    -0.20730
C2770       C  0.69946458  0.29885780  0.08415453    -0.07300
C2771       C  0.73069409  0.29979807  0.07926984     0.13570
C2772       C  0.74275521  0.28624828  0.05335025    -0.20780
C2773       C  0.72425527  0.27299850  0.03140477    -0.07300
C2774       C  0.69304639  0.27164429  0.03676827     0.13560
C2775       C  0.67136372  0.25874926  0.01424149    -0.24130
H2776       H  0.65736728  0.28339905  0.06663319     0.14850
H2777       H  0.76659375  0.28760471  0.04930976     0.14880
C2778       C  0.75132524  0.31510355  0.10116145    -0.24080
H2779       H  0.64837455  0.25711919  0.02347610     0.05090
H2780       H  0.67822315  0.23584872  0.00733138     0.08320
H2781       H  0.67007186  0.27361204  0.99440205     0.08320
H2782       H  0.74826129  0.30528066  0.12378571     0.08300
H2783       H  0.74660750  0.33956454  0.10198331     0.08300
H2784       H  0.77514181  0.31226669  0.09472020     0.05080
C2785       C  0.71165808  0.25923869  0.95215683    -0.20730
C2786       C  0.72653223  0.27671655  0.97388521    -0.07300
C2787       C  0.73020483  0.30779438  0.96861280     0.13570
C2788       C  0.71930352  0.32031938  0.94200966    -0.20780
C2789       C  0.70253074  0.30347184  0.92110484    -0.07300
C2790       C  0.69921233  0.27216275  0.92615597     0.13560
C2791       C  0.68226605  0.25215349  0.90481763    -0.24130
H2792       H  0.70811238  0.23558425  0.95648232     0.14850
H2793       H  0.72193568  0.34431657  0.93892222     0.14880
C2794       C  0.74413454  0.32857249  0.99146244    -0.24080
H2795       H  0.68418427  0.22808280  0.91113503     0.05090
H2796       H  0.69136382  0.25468846  0.88184443     0.08320
H2797       H  0.65813577  0.25790550  0.90505092     0.08320
H2798       H  0.76648085  0.32044522  0.99830128     0.08300
H2799       H  0.72945145  0.33022262  0.01137052     0.08300
H2800       H  0.74691683  0.35173402  0.98264379     0.05080
C2801       C  0.75799018  0.04048787  0.19532683    -0.20730
C2802       C  0.76838352  0.02851951  0.22237796    -0.07300
C2803       C  0.78999943  0.04516347  0.23874286     0.13570
C2804       C  0.80236846  0.07151340  0.22618489    -0.20780
C2805       C  0.79225465  0.08313418  0.19860464    -0.07300
C2806       C  0.76759227  0.06854138  0.18463765     0.13560
C2807       C  0.75028111  0.08246949  0.15904804    -0.24130
H2808       H  0.74148777  0.02822339  0.18259171     0.14850
H2809       H  0.82072031  0.08246412  0.23771892     0.14880
C2810       C  0.80106461  0.03562432  0.26912035    -0.24080
H2811       H  0.72924323  0.06999253  0.15448548     0.05090
H2812       H  0.76314108  0.08231861  0.13790185     0.08320
H2813       H  0.74401807  0.10589144  0.16495607     0.08320
H2814       H  0.82544323  0.03103814  0.26807618     0.08300
H2815       H  0.78969115  0.01526592  0.27758743     0.08300
H2816       H  0.79698548  0.05397957  0.28549782     0.05080
C2817       C  0.79633847  0.96148056  0.23412401    -0.20730
C2818       C  0.76824950  0.97024681  0.22292499    -0.07300
C2819       C  0.75350071  0.95067674  0.20273329     0.13570
C2820       C  0.76715636  0.92339625  0.19427645    -0.20780
C2821       C  0.79598667  0.91520961  0.20422297    -0.07300
C2822       C  0.81037167  0.93447537  0.22516279     0.13560
C2823       C  0.84112806  0.92772846  0.23723949    -0.24130
H2824       H  0.80777842  0.97608261  0.24970446     0.14850
H2825       H  0.75595283  0.90923288  0.17799070     0.14880
C2826       C  0.72422908  0.95914838  0.18834657    -0.24080
H2827       H  0.84856301  0.94488484  0.25374513     0.05090
H2828       H  0.85768172  0.92753504  0.21876612     0.08320
H2829       H  0.84102241  0.90561042  0.24871180     0.08320
H2830       H  0.72696667  0.97997009  0.17510965     0.08300
H2831       H  0.70690370  0.96265445  0.20552712     0.08300
H2832       H  0.71602616  0.94136538  0.17290934     0.05080
C2833       C  0.72982027  0.03402792  0.29645272    -0.20730
C2834       C  0.72090142  0.02923367  0.26681649    -0.07300
C2835       C  0.70370864  0.05195390  0.25242376     0.13570
C2836       C  0.69476555  0.07760421  0.26869487    -0.20780
C2837       C  0.70236531  0.08163575  0.29900090    -0.07300
C2838       C  0.72131155  0.05967912  0.31264569     0.13560
C2839       C  0.73220131  0.06184209  0.34462417    -0.24130
H2840       H  0.74337542  0.01703811  0.30733120     0.14850
H2841       H  0.68047743  0.09397764  0.25780817     0.14880
C2842       C  0.69300907  0.04986792  0.22054091    -0.24080
H2843       H  0.74814212  0.04356617  0.35033504     0.05090
H2844       H  0.71315167  0.05975875  0.36037357     0.08320
H2845       H  0.74411912  0.08345914  0.34811775     0.08320
H2846       H  0.66819568  0.05070369  0.22001267     0.08300
H2847       H  0.70006246  0.02888956  0.20937341     0.08300
H2848       H  0.70175205  0.06922658  0.20758146     0.05080
C2849       C  0.73934098  0.95429092  0.28483680    -0.20730
C2850       C  0.71954964  0.97138653  0.26706660    -0.07300
C2851       C  0.68933128  0.96177074  0.26516648     0.13570
C2852       C  0.68018367  0.93573167  0.28016722    -0.20780
C2853       C  0.69963691  0.91912391  0.29842119    -0.07300
C2854       C  0.72979327  0.92854886  0.30066606     0.13560
C2855       C  0.75202756  0.91166836  0.31959538    -0.24130
H2856       H  0.76223744  0.96181878  0.28728714     0.14850
H2857       H  0.65679763  0.92936623  0.27888017     0.14880
C2858       C  0.66545734  0.97814729  0.24804518    -0.24080
H2859       H  0.77495906  0.92092212  0.31713486     0.05090
H2860       H  0.75254345  0.88768948  0.31267447     0.08320
H2861       H  0.74592034  0.91332699  0.34359725     0.08320
H2862       H  0.65506504  0.96273374  0.23143812     0.08300
H2863       H  0.67417083  0.99738130  0.23575886     0.08300
H2864       H  0.64795406  0.98625338  0.26372017     0.05080
C2865       C  0.03581117  0.80008983  0.23634165    -0.20730
C2866       C  0.02889742  0.77105830  0.22653670    -0.07300
C2867       C  0.04882162  0.75634408  0.20672370     0.13570
C2868       C  0.07398253  0.77195545  0.19580716    -0.20780
C2869       C  0.08002033  0.80191046  0.20416830    -0.07300
C2870       C  0.06105364  0.81559489  0.22599972     0.13560
C2871       C  0.06599884  0.84693539  0.23814284    -0.24130
H2872       H  0.02083034  0.81107498  0.25193086     0.14850
H2873       H  0.08825809  0.76103521  0.17950261     0.14880
C2874       C  0.04346055  0.72462633  0.19617601    -0.24080
H2875       H  0.05042525  0.85234100  0.25675068     0.05090
H2876       H  0.06193474  0.86390227  0.22040583     0.08320
H2877       H  0.08906978  0.84900011  0.24712269     0.08320
H2878       H  0.02124565  0.72252124  0.18548978     0.08300
H2879       H  0.04495014  0.70899078  0.21526361     0.08300
H2880       H  0.06045563  0.71739477  0.17954812     0.05080
C2881       C  0.96499397  0.76499772  0.19409215    -0.20730
C2882       C  0.97182449  0.77129886  0.22406901    -0.07300
C2883       C  0.95234801  0.79037311  0.24039511     0.13570
C2884       C  0.92653354  0.80192873  0.22643205    -0.20780
C2885       C  0.91970091  0.79570766  0.19624492    -0.07300
C2886       C  0.93925215  0.77638726  0.18007591     0.13560
C2887       C  0.93434029  0.76854918  0.14754662    -0.24130
H2888       H  0.98007277  0.75102925  0.18131506     0.14850
H2889       H  0.91238915  0.81725649  0.23892156     0.14880
C2890       C  0.95883188  0.80057836  0.27191324    -0.24080
H2891       H  0.95189822  0.75319415  0.13883675     0.05090
H2892       H  0.93493727  0.78918163  0.13365688     0.08320
H2893       H  0.91253366  0.75695295  0.14480372     0.08320
H2894       H  0.98017557  0.79166812  0.28076761     0.08300
H2895       H  0.94046160  0.79326833  0.28692978     0.08300
H2896       H  0.96027243  0.82549263  0.27250349     0.05080
C2897       C  0.06039873  0.68226893  0.28413080    -0.20730
C2898       C  0.08118827  0.70141062  0.29824695    -0.07300
C2899       C  0.07444687  0.73245617  0.29986907     0.13570
C2900       C  0.04753317  0.74321747  0.28702784    -0.20780
C2901       C  0.02697426  0.72376860  0.27275307    -0.07300
C2902       C  0.03343389  0.69266524  0.27218073     0.13560
C2903       C  0.01239564  0.66986256  0.25870901    -0.24130
H2904       H  0.06463024  0.65832669  0.28339755     0.14850
H2905       H  0.04224695  0.76691060  0.28862628     0.14880
C2906       C  0.09550981  0.75433523  0.31459762    -0.24080
H2907       H  0.02179032  0.64677513  0.25921225     0.05090
H2908       H  0.00808155  0.67530015  0.23494378     0.08320
H2909       H  0.99125812  0.66921041  0.27158847     0.08320
H2910       H  0.11791421  0.75269582  0.30403647     0.08300
H2911       H  0.09735075  0.74940656  0.33886779     0.08300
H2912       H  0.08756880  0.77787870  0.31225506     0.05080
C2913       C  0.96384986  0.73313847  0.30136461    -0.20730
C2914       C  0.96951864  0.72595108  0.27136457    -0.07300
C2915       C  0.94789188  0.70899757  0.25527123     0.13570
C2916       C  0.92236230  0.69832913  0.27022233    -0.20780
C2917       C  0.91752285  0.70415416  0.30076147    -0.07300
C2918       C  0.93802743  0.72313593  0.31611908     0.13560
C2919       C  0.93401685  0.73189504  0.34852405    -0.24130
H2920       H  0.98017189  0.74641051  0.31355006     0.14850
H2921       H  0.90696777  0.68374823  0.25830323     0.14880
C2922       C  0.95182730  0.69956841  0.22312740    -0.24080
H2923       H  0.95206535  0.74712306  0.35643639     0.05090
H2924       H  0.93449648  0.71168842  0.36298261     0.08320
H2925       H  0.91248117  0.74397044  0.35137002     0.08320
H2926       H  0.97329511  0.70708244  0.21350438     0.08300
H2927       H  0.93332845  0.70892976  0.20941104     0.08300
H2928       H  0.95120413  0.67466118  0.22152268     0.05080
C2929       C  0.22999264  0.07414286  0.80788784    -0.20730
C2930       C  0.20110530  0.08300658  0.79902012    -0.07300
C2931       C  0.18650941  0.06585156  0.77642942     0.13570
C2932       C  0.20007352  0.03948694  0.76538918    -0.20780
C2933       C  0.22835078  0.02999354  0.77519836    -0.07300
C2934       C  0.24395677  0.04827226  0.79605565     0.13560
C2935       C  0.27501551  0.04061349  0.80660657    -0.24130
H2936       H  0.24134990  0.08704084  0.82508766     0.14850
H2937       H  0.18826076  0.02586343  0.74911066     0.14880
C2938       C  0.15597900  0.07408797  0.76464806    -0.24080
H2939       H  0.28309739  0.05669733  0.82385316     0.05090
H2940       H  0.29074567  0.04180428  0.78765630     0.08320
H2941       H  0.27573875  0.01791374  0.81655921     0.08320
H2942       H  0.15665454  0.09692017  0.75468004     0.08300
H2943       H  0.13925424  0.07340271  0.78291491     0.08300
H2944       H  0.14830983  0.05829420  0.74694371     0.05080
C2945       C  0.23195208  0.96382890  0.80533487    -0.20730
C2946       C  0.22549215  0.97225662  0.77579727    -0.07300
C2947       C  0.20565046  0.95394749  0.75898482     0.13570
C2948       C  0.19338315  0.92782911  0.77205596    -0.20780
C2949       C  0.20024661  0.91912575  0.80162267    -0.07300
C2950       C  0.22042558  0.93743176  0.81820820     0.13560
C2951       C  0.22936529  0.93028371  0.85000281    -0.24130
H2952       H  0.24647098  0.97792278  0.81859530     0.14850
H2953       H  0.17739581  0.91470358  0.75928691     0.14880
C2954       C  0.19567953  0.96194416  0.72777974    -0.24080
H2955       H  0.24534024  0.94704546  0.85921194     0.05090
H2956       H  0.24052861  0.90801322  0.85081789     0.08320
H2957       H  0.20947062  0.93034891  0.86475594     0.08320
H2958       H  0.20211225  0.94367907  0.71208283     0.08300
H2959       H  0.20551217  0.98324167  0.71962178     0.08300
H2960       H  0.17098678  0.96450751  0.72737629     0.05080
C2961       C  0.25695056  0.04867602  0.71501429    -0.20730
C2962       C  0.27548544  0.02707109  0.72886297    -0.07300
C2963       C  0.30661196  0.03279189  0.72989489     0.13570
C2964       C  0.31789933  0.05995501  0.71868308    -0.20780
C2965       C  0.29959710  0.08174229  0.70491367    -0.07300
C2966       C  0.26850809  0.07573218  0.70296397     0.13560
C2967       C  0.24729681  0.09759766  0.68846059    -0.24130
H2968       H  0.23326919  0.04405706  0.71304153     0.14850
H2969       H  0.34184729  0.06347889  0.71960431     0.14880
C2970       C  0.32852877  0.01064295  0.74291914    -0.24080
H2971       H  0.22367726  0.09021875  0.69068255     0.05090
H2972       H  0.25222583  0.09947517  0.66420048     0.08320
H2973       H  0.24944920  0.11998512  0.69927940     0.08320
H2974       H  0.32835671  0.98960781  0.72963354     0.08300
H2975       H  0.32300711  0.00600983  0.76658277     0.08300
H2976       H  0.35179349  0.01933154  0.74253718     0.05080
C2977       C  0.26458063  0.96346388  0.69880911    -0.20730
C2978       C  0.27139593  0.96895095  0.72900743    -0.07300
C2979       C  0.28735588  0.94651608  0.74505889     0.13570
C2980       C  0.29713785  0.92038447  0.73012617    -0.20780
C2981       C  0.29183838  0.91566033  0.69941361    -0.07300
C2982       C  0.27409267  0.93716811  0.68393029     0.13560
C2983       C  0.26611429  0.93360258  0.65131134    -0.24130
H2984       H  0.25208397  0.98032160  0.68654353     0.14850
H2985       H  0.31081166  0.90437428  0.74227932     0.14880
C2986       C  0.29671842  0.95009666  0.77724913    -0.24080
H2987       H  0.25172885  0.95226692  0.64322198     0.05090
H2988       H  0.25359007  0.91231814  0.64795689     0.08320
H2989       H  0.28659176  0.93354282  0.63738889     0.08320
H2990       H  0.28677690  0.93178338  0.79084685     0.08300
H2991       H  0.28991729  0.97190250  0.78692949     0.08300
H2992       H  0.32145152  0.94864488  0.77892999     0.05080
C2993       C  0.07173367  0.19626515  0.77191565    -0.20730
C2994       C  0.08038776  0.20344873  0.80142762    -0.07300
C2995       C  0.06151662  0.22271693  0.81835813     0.13570
C2996       C  0.03433337  0.23265403  0.80599735    -0.20780
C2997       C  0.02588907  0.22572433  0.77653639    -0.07300
C2998       C  0.04487784  0.20696827  0.75934582     0.13560
C2999       C  0.03693588  0.19651588  0.72824175    -0.24130
H3000       H  0.08540913  0.18095020  0.75889558     0.14850
H3001       H  0.01984968  0.24662479  0.81940694     0.14880
C3002       C  0.06917058  0.23258933  0.84978630    -0.24080
H3003       H  0.03576835  0.17158378  0.72786017     0.05090
H3004       H  0.05443744  0.20396681  0.71228529     0.08320
H3005       H  0.01509091  0.20519834  0.72040066     0.08320
H3006       H  0.09090361  0.24463904  0.84978751     0.08300
H3007       H  0.07035092  0.21295622  0.86494418     0.08300
H3008       H  0.05213871  0.24817885  0.85910514     0.05080
C3009       C  0.92224724  0.23142191  0.80448265    -0.20730
C3010       C  0.91339122  0.20228672  0.79575933    -0.07300
C3011       C  0.93164872  0.18677794  0.77477855     0.13570
C3012       C  0.95881554  0.19974794  0.76519848    -0.20780
C3013       C  0.96823372  0.22822436  0.77511019    -0.07300
C3014       C  0.94917541  0.24452967  0.79460091     0.13560
C3015       C  0.95721940  0.27532386  0.80612070    -0.24130
H3016       H  0.90861599  0.24354657  0.82051671     0.14850
H3017       H  0.97303174  0.18736979  0.74992340     0.14880
C3018       C  0.92347666  0.15606969  0.76305245    -0.24080
H3019       H  0.94056285  0.28378013  0.82252266     0.05090
H3020       H  0.95766362  0.29148175  0.78749094     0.08320
H3021       H  0.97919151  0.27504902  0.81744859     0.08320
H3022       H  0.90132646  0.15705527  0.75185530     0.08300
H3023       H  0.92280090  0.13954402  0.78155907     0.08300
H3024       H  0.93996540  0.14775884  0.74640108     0.05080
C3025       C  0.03352432  0.26546054  0.69868985    -0.20730
C3026       C  0.02928759  0.27132061  0.72927107    -0.07300
C3027       C  0.05201324  0.28716872  0.74496631     0.13570
C3028       C  0.07745529  0.29732594  0.72945014    -0.20780
C3029       C  0.08073113  0.29327288  0.69835828    -0.07300
C3030       C  0.05868707  0.27607260  0.68303655     0.13560
C3031       C  0.06017870  0.27025910  0.64979565    -0.24130
H3032       H  0.01629968  0.25324961  0.68665651     0.14850
H3033       H  0.09384120  0.31067798  0.74147051     0.14880
C3034       C  0.04925843  0.29643547  0.77727608    -0.24080
H3035       H  0.04119146  0.25624001  0.64187195     0.05090
H3036       H  0.08112653  0.25806275  0.64430213     0.08320
H3037       H  0.05922578  0.29181634  0.63737135     0.08320
H3038       H  0.06770404  0.28624447  0.79046091     0.08300
H3039       H  0.02768829  0.28982678  0.78731155     0.08300
H3040       H  0.05093412  0.32128464  0.77905937     0.05080
C3041       C  0.95078477  0.25719290  0.71492954    -0.20730
C3042       C  0.97202396  0.27568637  0.72934501    -0.07300
C3043       C  0.96668906  0.30698863  0.73051791     0.13570
C3044       C  0.94005175  0.31852408  0.71890750    -0.20780
C3045       C  0.91869638  0.30033637  0.70433858    -0.07300
C3046       C  0.92431978  0.26906668  0.70229033     0.13560
C3047       C  0.90273013  0.24806682  0.68703607    -0.24130
H3048       H  0.95530455  0.23336862  0.71289166     0.14850
H3049       H  0.93680635  0.34263917  0.71992498     0.14880
C3050       C  0.98875433  0.32886877  0.74389449    -0.24080
H3051       H  0.90976126  0.22422726  0.68933772     0.05090
H3052       H  0.90154016  0.25315683  0.66276085     0.08320
H3053       H  0.88021886  0.25043350  0.69722196     0.08320
H3054       H  0.00967036  0.32884595  0.73066604     0.08300
H3055       H  0.99339692  0.32311327  0.76751141     0.08300
H3056       H  0.98016160  0.35228868  0.74372861     0.05080
loop_ 
_geom_bond_atom_site_label_1 
_geom_bond_atom_site_label_2 
_geom_bond_distance 
_geom_bond_site_symmetry_2 
_ccdc_geom_bond_type 
C1            C2   1.375       .  D
C1         C3026   1.509   1_655  S
C1         C3042   1.506       .  S
C2         C2997   1.504   1_655  S
C2         C3013   1.511       .  S
C3            C4   1.377   1_565  D
C3         C2962   1.516   1_565  S
C3         C2978   1.512       .  S
C4         C2933   1.508       .  S
C4         C2946   1.510   1_545  S
C5            C6   1.370       .  D
C5         C2866   1.499   1_655  S
C5         C2882   1.505       .  S
C6         C2901   1.510   1_655  S
C6         C2914   1.502       .  S
C7            C8   1.376   1_545  D
C7         C2834   1.508       .  S
C7         C2850   1.515   1_545  S
C8         C2802   1.508   1_565  S
C8         C2818   1.512       .  S
C9           C10   1.372       .  D
C9         C2738   1.507       .  S
C9         C2757   1.503   1_554  S
C10        C2773   1.507       .  S
C10        C2786   1.504   1_554  S
C11          C12   1.376       .  D
C11        C2706   1.516       .  S
C11        C2722   1.509   1_554  S
C12        C2674   1.512       .  S
C12        C2690   1.513   1_554  S
C13          C14   1.378       .  D
C13        C2610   1.511   1_556  S
C13        C2629   1.521       .  S
C14        C2645   1.516   1_556  S
C14        C2658   1.511       .  S
C15          C16   1.372       .  D
C15        C2546   1.503       .  S
C15        C2562   1.508   1_545  S
C16        C2578   1.518       .  S
C16        C2594   1.511   1_545  S
C17          C18   1.370       .  D
C17        C2514   1.510   1_655  S
C17        C2530   1.514       .  S
C18        C2482   1.510   1_655  S
C18        C2498   1.511       .  S
Fe19         O35   2.050       .  S
Fe19         O25   2.051       .  S
Fe19         O32   2.066       .  S
Fe19         O24   2.059       .  S
Fe19         O30   1.945       .  S
Fe20         O23   2.043       .  S
Fe20         O27   2.060       .  S
Fe20         O31   2.084       .  S
Fe20         O36   2.068       .  S
Fe20         O30   1.946       .  S
Fe21         O39   2.051       .  S
Fe21         O26   2.099       .  S
Fe21         O33   2.060       .  S
Fe21         O22   2.078       .  S
Fe21         O30   1.958       .  S
O22          C29   1.275       .  A
O23          C37   1.263       .  A
O24          C29   1.271       .  A
O25          C28   1.268       .  A
O26          C38   1.279       .  A
O27          C40   1.267       .  A
C28          O33   1.269       .  A
C28        C2437   1.464       .  S
C29        C2485   1.507       .  S
O31          C34   1.274       .  A
O32          C34   1.273       .  A
C34        C2693   1.506       .  S
O35          C40   1.266       .  A
O36          C38   1.277       .  A
C37          O39   1.264       .  A
C37        C2450   1.462       .  S
C38        C2949   1.503       .  S
C40        C2466   1.483       .  S
Fe41         O57   2.073       .  S
Fe41         O47   2.083       .  S
Fe41         O54   2.062       .  S
Fe41         O46   2.048       .  S
Fe41         O52   1.949       .  S
Fe42         O45   2.062       .  S
Fe42         O49   2.094       .  S
Fe42         O53   2.045       .  S
Fe42         O58   2.062       .  S
Fe42         O52   1.949       .  S
Fe43         O61   2.085       .  S
Fe43         O48   2.045       .  S
Fe43         O55   2.074       .  S
Fe43         O44   2.053       .  S
Fe43         O52   1.959       .  S
O44          C51   1.266       .  A
O45          C59   1.273       .  A
O46          C51   1.267       .  A
O47          C50   1.275       .  A
O48          C60   1.264       .  A
O49          C62   1.276       .  A
C50          O55   1.275       .  A
C50        C2626   1.509       .  S
C51        C2418   1.455       .  S
O53          C56   1.263       .  A
O54          C56   1.268       .  A
C56        C2402   1.466       .  S
O57          C62   1.277       .  A
O58          C60   1.268       .  A
C59          O61   1.276       .  A
C59        C2501   1.497       .  S
C60        C2434   1.463       .  S
C62        C2565   1.509       .  S
Fe63         O79   2.066       .  S
Fe63         O69   2.060       .  S
Fe63         O76   2.059       .  S
Fe63         O68   2.048       .  S
Fe63         O74   1.945       .  S
Fe64         O67   2.067       .  S
Fe64         O71   2.072       .  S
Fe64         O75   2.053       .  S
Fe64         O80   2.055       .  S
Fe64         O74   1.947       .  S
Fe65         O83   2.079       .  S
Fe65         O70   2.051       .  S
Fe65         O77   2.092       .  S
Fe65         O66   2.055       .  S
Fe65         O74   1.960       .  S
O66          C73   1.267       .  A
O67          C81   1.273       .  A
O68          C73   1.264       .  A
O69          C72   1.271       .  A
O70          C82   1.267       .  A
O71          C84   1.275       .  A
C72          O77   1.276       .  A
C72        C2354   1.500       .  S
C73        C2389   1.464       .  S
O75          C78   1.265       .  A
O76          C78   1.267       .  A
C78        C2370   1.470       .  S
O79          C84   1.269       .  A
O80          C82   1.267       .  A
C81          O83   1.277       .  A
C81        C2677   1.509       .  S
C82        C2469   1.467       .  S
C84        C2869   1.502       .  S
Fe85        O101   2.068       .  S
Fe85         O91   2.082       .  S
Fe85         O98   2.061       .  S
Fe85         O90   2.071       .  S
Fe85         O96   1.950       .  S
Fe86         O89   2.079       .  S
Fe86         O93   2.087       .  S
Fe86         O97   2.051       .  S
Fe86        O102   2.047       .  S
Fe86         O96   1.959       .  S
Fe87        O105   2.062       .  S
Fe87         O92   2.045       .  S
Fe87         O99   2.071       .  S
Fe87         O88   2.030       .  S
Fe87         O96   1.951       .  S
O88          C95   1.258       .  A
O89         C103   1.275       .  A
O90          C95   1.270       .  A
O91          C94   1.272       .  A
O92         C104   1.268       .  A
O93         C106   1.278       .  A
C94          O99   1.278       .  A
C94        C2613   1.507       .  S
C95        C2421   1.483       .  S
O97         C100   1.263       .  A
O98         C100   1.267       .  A
C100       C2373   1.478       .  S
O101        C106   1.275       .  A
O102        C104   1.267       .  A
C103        O105   1.269       .  A
C103       C2821   1.506       .  S
C104       C2338   1.455       .  S
C106       C2885   1.498       .  S
Fe107       O123   2.043       .  S
Fe107       O113   2.068       .  S
Fe107       O120   2.088       .  S
Fe107       O112   2.067       .  S
Fe107       O118   1.963       .  S
Fe108       O111   2.041       .  S
Fe108       O115   2.067       .  S
Fe108       O119   2.062       .  S
Fe108       O124   2.077       .  S
Fe108       O118   1.951       .  S
Fe109       O127   2.056       .  S
Fe109       O114   2.071       .  S
Fe109       O121   2.025       .  S
Fe109       O110   2.075       .  S
Fe109       O118   1.957       .  S
O110        C117   1.275       .  A
O111        C125   1.261       .  A
O112        C117   1.271       .  A
O113        C116   1.271       .  A
O114        C126   1.274       .  A
O115        C128   1.269       .  A
C116        O121   1.263       .  A
C116       C2306   1.473       .  S
C117       C3010   1.504       .  S
O119        C122   1.269       .  A
O120        C122   1.280       .  A
C122       C2754   1.500       .  S
O123        C128   1.260       .  A
O124        C126   1.276       .  A
C125        O127   1.266       .  A
C125       C2405   1.472       .  S
C126       C2549   1.501       .  S
C128       C2322   1.486       .  S
Fe129       O145   2.090       .  S
Fe129       O135   2.079       .  S
Fe129       O142   2.059       .  S
Fe129       O134   2.061       .  S
Fe129       O140   1.958       .  S
Fe130       O133   2.072       .  S
Fe130       O137   2.062       .  S
Fe130       O141   2.049       .  S
Fe130       O146   2.061       .  S
Fe130       O140   1.944       .  S
Fe131       O149   2.071       .  S
Fe131       O136   2.051       .  S
Fe131       O143   2.068       .  S
Fe131       O132   2.037       .  S
Fe131       O140   1.951       .  S
O132        C139   1.263       .  A
O133        C147   1.269       .  A
O134        C139   1.269       .  A
O135        C138   1.277       .  A
O136        C148   1.265       .  A
O137        C150   1.275       .  A
C138        O143   1.270       .  A
C138       C2805   1.504       .  S
C139       C2341   1.456       .  S
O141        C144   1.265       .  A
O142        C144   1.266       .  A
C144       C2290   1.465       .  S
O145        C150   1.275       .  A
O146        C148   1.269       .  A
C147        O149   1.274       .  A
C147       C2741   1.506       .  S
C148       C2325   1.467       .  S
C150       C2277   1.500       .  S
Fe151       O167   2.043       .  S
Fe151       O157   2.051       .  S
Fe151       O164   2.064       .  S
Fe151       O156   2.074       .  S
Fe151       O162   1.959       .  S
Fe152       O155   2.062       .  S
Fe152       O159   2.069       .  S
Fe152       O163   2.097       .  S
Fe152       O168   2.087       .  S
Fe152       O162   1.954       .  S
Fe153       O171   2.051       .  S
Fe153       O158   2.055       .  S
Fe153       O165   2.041       .  S
Fe153       O154   2.062       .  S
Fe153       O162   1.948       .  S
O154        C161   1.270       .  A
O155        C169   1.267       .  A
O156        C161   1.269       .  A
O157        C160   1.268       .  A
O158        C170   1.268       .  A
O159        C172   1.268       .  A
C160        O165   1.265       .  A
C160       C2309   1.452       .  S
C161       C2994   1.497       .  S
O163        C166   1.278       .  A
O164        C166   1.274       .  A
C166       C2930   1.500       .  S
O167        C172   1.264       .  A
O168        C170   1.281       .  A
C169        O171   1.265       .  A
C169       C2258   1.468       .  S
C170       C2242   1.505       .  S
C172       C2453   1.487       .  S
Fe173       O189   2.050       .  S
Fe173       O179   2.076       .  S
Fe173       O186   2.070       .  S
Fe173       O178   2.036       .  S
Fe173       O184   1.937       .  S
Fe174       O177   2.056       .  S
Fe174       O181   2.098       .  S
Fe174       O185   2.043       .  S
Fe174       O190   2.078       .  S
Fe174       O184   1.941       .  S
Fe175       O193   2.102       .  S
Fe175       O180   2.040       .  S
Fe175       O187   2.069       .  S
Fe175       O176   2.076       .  S
Fe175       O184   1.951       .  S
O176        C183   1.273       .  A
O177        C191   1.270       .  A
O178        C183   1.264       .  A
O179        C182   1.271       .  A
O180        C192   1.266       .  A
O181        C194   1.277       .  A
C182        O187   1.275       .  A
C182       C2213   1.498       .  S
C183       C2386   1.463       .  S
O185        C188   1.265       .  A
O186        C188   1.270       .  A
C188       C2261   1.460       .  S
O189        C194   1.268       .  A
O190        C192   1.272       .  A
C191        O193   1.277       .  A
C191       C2194   1.502       .  S
C192       C2293   1.462       .  S
C194       C2229   1.499       .  S
C195        C196   1.373       .  D
C195       C2149   1.506       .  S
C195       C2178   1.513       .  S
C196       C2130   1.511       .  S
C196       C2165   1.507       .  S
C197        C198   1.367       .  D
C197       C2082   1.505       .  S
C197       C2114   1.502       .  S
C198       C2066   1.507       .  S
C198       C2098   1.512       .  S
C199        C200   1.373       .  D
C199       C2021   1.514       .  S
C199       C2050   1.500       .  S
C200       C2005   1.499       .  S
C200       C2037   1.516       .  S
C201        C202   1.374       .  D
C201       C1973   1.506       .  S
C201       C1986   1.523   1_554  S
C202       C2226   1.519       .  S
C202       C2245   1.505   1_554  S
C203        C204   1.374       .  D
C203       C1938   1.511       .  S
C203       C1954   1.509   1_545  S
C204       C2210   1.504       .  S
C204       C2357   1.512   1_545  S
C205        C206   1.372       .  D
C205       C1874   1.513       .  S
C205       C1906   1.510       .  S
C206       C1890   1.511       .  S
C206       C1922   1.510       .  S
C207        C208   1.372       .  D
C207       C1845   1.510       .  S
C207       C1858   1.518       .  S
C208       C1810   1.508       .  S
C208       C1826   1.499       .  S
C209        C210   1.384       .  D
C209       C1765   1.542       .  S
C209       C1794   1.509       .  S
C210       C1746   1.507       .  S
C210       C1781   1.514       .  S
Fe211       O227   2.074       .  S
Fe211       O217   2.076       .  S
Fe211       O224   2.055       .  S
Fe211       O216   2.033       .  S
Fe211       O222   1.938       .  S
Fe212       O215   2.072       .  S
Fe212       O219   2.073       .  S
Fe212       O223   2.052       .  S
Fe212       O228   2.055       .  S
Fe212       O222   1.957       .  S
Fe213       O231   2.070       .  S
Fe213       O218   2.037       .  S
Fe213       O225   2.081       .  S
Fe213       O214   2.059       .  S
Fe213       O222   1.958       .  S
O214        C221   1.265       .  A
O215        C229   1.272       .  A
O216        C221   1.265       .  A
O217        C220   1.276       .  A
O218        C230   1.265       .  A
O219        C232   1.276       .  A
C220        O225   1.274       .  A
C220       C1749   1.502       .  S
C221       C1717   1.474       .  S
O223        C226   1.265       .  A
O224        C226   1.265       .  A
C226       C1698   1.476       .  S
O227        C232   1.275       .  A
O228        C230   1.266       .  A
C229        O231   1.275       .  A
C229       C1957   1.494       .  S
C230       C1730   1.478       .  S
C232       C1813   1.498       .  S
Fe233       O249   2.074       .  S
Fe233       O239   2.069       .  S
Fe233       O246   2.046       .  S
Fe233       O238   2.053       .  S
Fe233       O244   1.951       .  S
Fe234       O237   2.092       .  S
Fe234       O241   2.073       .  S
Fe234       O245   2.066       .  S
Fe234       O250   2.072       .  S
Fe234       O244   1.950       .  S
Fe235       O253   2.063       .  S
Fe235       O240   2.039       .  S
Fe235       O247   2.068       .  S
Fe235       O236   2.042       .  S
Fe235       O244   1.948       .  S
O236        C243   1.267       .  A
O237        C251   1.277       .  A
O238        C243   1.269       .  A
O239        C242   1.271       .  A
O240        C252   1.263       .  A
O241        C254   1.275       .  A
C242        O247   1.269       .  A
C242       C1941   1.503       .  S
C243       C1733   1.456       .  S
O245        C248   1.268       .  A
O246        C248   1.264       .  A
C248       C1666   1.471       .  S
O249        C254   1.276       .  A
O250        C252   1.268       .  A
C251        O253   1.275       .  A
C251       C2146   1.499       .  S
C252       C1682   1.485       .  S
C254       C2069   1.502       .  S
Fe255       O271   2.041       .  S
Fe255       O261   2.037       .  S
Fe255       O268   2.071       .  S
Fe255       O260   2.071       .  S
Fe255       O266   1.944       .  S
Fe256       O259   2.056       .  S
Fe256       O263   2.070       .  S
Fe256       O267   2.076       .  S
Fe256       O272   2.099       .  S
Fe256       O266   1.955       .  S
Fe257       O275   2.066       .  S
Fe257       O262   2.058       .  S
Fe257       O269   2.063       .  S
Fe257       O258   2.081       .  S
Fe257       O266   1.948       .  S
O258        C265   1.274       .  A
O259        C273   1.266       .  A
O260        C265   1.273       .  A
O261        C264   1.263       .  A
O262        C274   1.274       .  A
O263        C276   1.271       .  A
C264        O269   1.270       .  A
C264       C1714   1.479       .  S
C265       C1778   1.511       .  S
O267        C270   1.276       .  A
O268        C270   1.270       .  A
C270       C1618   1.503       .  S
O271        C276   1.264       .  A
O272        C274   1.276       .  A
C273        O275   1.269       .  A
C273       C1650   1.477       .  S
C274       C2853   1.493       .  S
C276       C1634   1.468       .  S
Fe277       O293   2.050       .  S
Fe277       O283   2.058       .  S
Fe277       O290   2.059       .  S
Fe277       O282   2.063       .  S
Fe277       O288   1.944       .  S
Fe278       O281   2.050       .  S
Fe278       O285   2.053       .  S
Fe278       O289   2.088       .  S
Fe278       O294   2.065       .  S
Fe278       O288   1.951       .  S
Fe279       O297   2.052       .  S
Fe279       O284   2.090       .  S
Fe279       O291   2.064       .  S
Fe279       O280   2.073       .  S
Fe279       O288   1.951       .  S
O280        C287   1.276       .  A
O281        C295   1.265       .  A
O282        C287   1.268       .  A
O283        C286   1.269       .  A
O284        C296   1.278       .  A
O285        C298   1.267       .  A
C286        O291   1.269       .  A
C286       C1653   1.476       .  S
C287       C2837   1.504       .  S
O289        C292   1.273       .  A
O290        C292   1.273       .  A
C292       C1586   1.488       .  S
O293        C298   1.264       .  A
O294        C296   1.275       .  A
C295        O297   1.266       .  A
C295       C1685   1.456       .  S
C296       C2181   1.502       .  S
C298       C1602   1.474       .  S
Fe299       O315   2.087       .  S
Fe299       O305   2.065       .  S
Fe299       O312   2.056       .  S
Fe299       O304   2.057       .  S
Fe299       O310   1.946       .  S
Fe300       O303   2.067       .  S
Fe300       O307   2.064       .  S
Fe300       O311   2.050       .  S
Fe300       O316   2.062       .  S
Fe300       O310   1.941       .  S
Fe301       O319   2.072       .  S
Fe301       O306   2.052       .  S
Fe301       O313   2.083       .  S
Fe301       O302   2.050       .  S
Fe301       O310   1.955       .  S
O302        C309   1.268       .  A
O303        C317   1.273       .  A
O304        C309   1.268       .  A
O305        C308   1.274       .  A
O306        C318   1.264       .  A
O307        C320   1.275       .  A
C308        O313   1.271       .  A
C308       C1538   1.498       .  S
C309       C1637   1.462       .  S
O311        C314   1.264       .  A
O312        C314   1.266       .  A
C314       C1554   1.469       .  S
O315        C320   1.275       .  A
O316        C318   1.269       .  A
C317        O319   1.276       .  A
C317       C1925   1.503       .  S
C318       C1570   1.475       .  S
C320       C2597   1.490       .  S
Fe321       O337   2.082       .  S
Fe321       O327   2.117       .  S
Fe321       O334   2.069       .  S
Fe321       O326   2.074       .  S
Fe321       O332   1.954       .  S
Fe322       O325   2.079       .  S
Fe322       O329   2.081       .  S
Fe322       O333   2.046       .  S
Fe322       O338   2.060       .  S
Fe322       O332   1.948       .  S
Fe323       O341   2.061       .  S
Fe323       O328   2.048       .  S
Fe323       O335   2.055       .  S
Fe323       O324   2.044       .  S
Fe323       O332   1.940       .  S
O324        C331   1.264       .  A
O325        C339   1.275       .  A
O326        C331   1.265       .  A
O327        C330   1.282       .  A
O328        C340   1.266       .  A
O329        C342   1.278       .  A
C330        O335   1.273       .  A
C330       C1506   1.498       .  S
C331       C1522   1.476       .  S
O333        C336   1.265       .  A
O334        C336   1.271       .  A
C336       C1557   1.472       .  S
O337        C342   1.277       .  A
O338        C340   1.271       .  A
C339        O341   1.265       .  A
C339       C1493   1.507       .  S
C340       C1605   1.475       .  S
C342       C2581   1.511       .  S
Fe343       O359   2.058       .  S
Fe343       O349   2.084       .  S
Fe343       O356   2.051       .  S
Fe343       O348   2.057       .  S
Fe343       O354   1.948       .  S
Fe344       O347   2.068       .  S
Fe344       O351   2.101       .  S
Fe344       O355   2.055       .  S
Fe344       O360   2.056       .  S
Fe344       O354   1.959       .  S
Fe345       O363   2.077       .  S
Fe345       O350   2.039       .  S
Fe345       O357   2.080       .  S
Fe345       O346   2.047       .  S
Fe345       O354   1.954       .  S
O346        C353   1.267       .  A
O347        C361   1.275       .  A
O348        C353   1.267       .  A
O349        C352   1.270       .  A
O350        C362   1.264       .  A
O351        C364   1.279       .  A
C352        O357   1.276       .  A
C352       C1458   1.502       .  S
C353       C1525   1.448       .  S
O355        C358   1.263       .  A
O356        C358   1.264       .  A
C358       C1669   1.464       .  S
O359        C364   1.276       .  A
O360        C362   1.267       .  A
C361        O363   1.275       .  A
C361       C2965   1.507       .  S
C362       C1477   1.459       .  S
C364       C2101   1.493       .  S
Fe365       O381   2.087       .  S
Fe365       O371   2.079       .  S
Fe365       O378   2.043       .  S
Fe365       O370   2.060       .  S
Fe365       O376   1.957       .  S
Fe366       O369   2.100       .  S
Fe366       O373   2.073       .  S
Fe366       O377   2.050       .  S
Fe366       O382   2.069       .  S
Fe366       O376   1.950       .  S
Fe367       O385   2.057       .  S
Fe367       O372   2.040       .  S
Fe367       O379   2.046       .  S
Fe367       O368   2.058       .  S
Fe367       O376   1.936       .  S
O368        C375   1.271       .  A
O369        C383   1.278       .  A
O370        C375   1.267       .  A
O371        C374   1.274       .  A
O372        C384   1.262       .  A
O373        C386   1.277       .  A
C374        O379   1.267       .  A
C374       C1893   1.505       .  S
C375       C1573   1.476       .  S
O377        C380   1.267       .  A
O378        C380   1.264       .  A
C380       C1474   1.461       .  S
O381        C386   1.277       .  A
O382        C384   1.265       .  A
C383        O385   1.272       .  A
C383       C1829   1.495       .  S
C384       C1701   1.485       .  S
C386       C2981   1.502       .  S
C387        C388   1.374       .  D
C387       C1541   1.515       .  S
C387       C1621   1.508       .  S
C388       C1429   1.512       .  S
C388       C1442   1.504       .  S
C389        C390   1.375       .  D
C389       C1394   1.517       .  S
C389       C1410   1.521       .  S
C390       C1362   1.514       .  S
C390       C1378   1.512       .  S
C391        C392   1.371       .  D
C391       C1461   1.516       .  S
C391       C1509   1.509       .  S
C392       C1330   1.504       .  S
C392       C1346   1.511       .  S
Fe393       O409   2.081       .  S
Fe393       O399   2.071       .  S
Fe393       O406   2.053       .  S
Fe393       O398   2.048       .  S
Fe393       O404   1.939       .  S
Fe394       O397   2.078       .  S
Fe394       O401   2.069       .  S
Fe394       O405   2.062       .  S
Fe394       O410   2.048       .  S
Fe394       O404   1.954       .  S
Fe395       O413   2.074       .  S
Fe395       O400   2.062       .  S
Fe395       O407   2.097       .  S
Fe395       O396   2.073       .  S
Fe395       O404   1.949       .  S
O396        C403   1.267       .  A
O397        C411   1.275       .  A
O398        C403   1.267       .  A
O399        C402   1.277       .  A
O400        C412   1.269       .  A
O401        C414   1.273       .  A
C402        O407   1.279       .  A
C402       C2642   1.510       .  S
C403       C1282   1.492       .  S
O405        C408   1.267       .  A
O406        C408   1.269       .  A
C408       C1314   1.476       .  S
O409        C414   1.271       .  A
O410        C412   1.266       .  A
C411        O413   1.275       .  A
C411       C1266   1.497       .  S
C412       C1298   1.473       .  S
C414       C1797   1.496       .  S
Fe415       O431   2.070       .  S
Fe415       O421   2.055       .  S
Fe415       O428   2.035       .  S
Fe415       O420   2.069       .  S
Fe415       O426   1.948       .  S
Fe416       O419   2.077       .  S
Fe416       O423   2.092       .  S
Fe416       O427   2.070       .  S
Fe416       O432   2.062       .  S
Fe416       O426   1.958       .  S
Fe417       O435   2.064       .  S
Fe417       O422   2.045       .  S
Fe417       O429   2.077       .  S
Fe417       O418   2.040       .  S
Fe417       O426   1.958       .  S
O418        C425   1.263       .  A
O419        C433   1.276       .  A
O420        C425   1.271       .  A
O421        C424   1.269       .  A
O422        C434   1.265       .  A
O423        C436   1.277       .  A
C424        O429   1.273       .  A
C424       C1909   1.501       .  S
C425       C1234   1.475       .  S
O427        C430   1.268       .  A
O428        C430   1.259       .  A
C430       C1285   1.487       .  S
O431        C436   1.277       .  A
O432        C434   1.271       .  A
C433        O435   1.270       .  A
C433       C1218   1.493       .  S
C434       C1250   1.470       .  S
C436       C2661   1.496       .  S
Fe437       O453   2.083       .  S
Fe437       O443   2.065       .  S
Fe437       O450   2.053       .  S
Fe437       O442   2.066       .  S
Fe437       O448   1.951       .  S
Fe438       O441   2.097       .  S
Fe438       O445   2.072       .  S
Fe438       O449   2.064       .  S
Fe438       O454   2.061       .  S
Fe438       O448   1.954       .  S
Fe439       O457   2.074       .  S
Fe439       O444   2.041       .  S
Fe439       O451   2.084       .  S
Fe439       O440   2.037       .  S
Fe439       O448   1.954       .  S
O440        C447   1.263       .  A
O441        C455   1.275       .  A
O442        C447   1.270       .  A
O443        C446   1.274       .  A
O444        C456   1.263       .  A
O445        C458   1.278       .  A
C446        O451   1.271       .  A
C446       C2709   1.507       .  S
C447       C1186   1.465       .  S
O449        C452   1.268       .  A
O450        C452   1.265       .  A
C452       C1202   1.469       .  S
O453        C458   1.275       .  A
O454        C456   1.269       .  A
C455        O457   1.276       .  A
C455       C1762   1.493       .  S
C456       C1317   1.474       .  S
C458       C2034   1.502       .  S
Fe459       O475   2.068       .  S
Fe459       O465   2.068       .  S
Fe459       O472   2.047       .  S
Fe459       O464   2.053       .  S
Fe459       O470   1.946       .  S
Fe460       O463   2.068       .  S
Fe460       O467   2.078       .  S
Fe460       O471   2.050       .  S
Fe460       O476   2.045       .  S
Fe460       O470   1.953       .  S
Fe461       O479   2.082       .  S
Fe461       O466   2.051       .  S
Fe461       O473   2.081       .  S
Fe461       O462   2.051       .  S
Fe461       O470   1.958       .  S
O462        C469   1.265       .  A
O463        C477   1.274       .  A
O464        C469   1.266       .  A
O465        C468   1.274       .  A
O466        C478   1.266       .  A
O467        C480   1.271       .  A
C468        O473   1.276       .  A
C468       C1381   1.508       .  S
C469       C1170   1.461       .  S
O471        C474   1.266       .  A
O472        C474   1.264       .  A
C474       C1189   1.462       .  S
O475        C480   1.275       .  A
O476        C478   1.264       .  A
C477        O479   1.275       .  A
C477       C1877   1.507       .  S
C478       C1237   1.449       .  S
C480       C2725   1.507       .  S
Fe481       O497   2.076       .  S
Fe481       O487   2.071       .  S
Fe481       O494   2.063       .  S
Fe481       O486   2.052       .  S
Fe481       O492   1.949       .  S
Fe482       O485   2.084       .  S
Fe482       O489   2.066       .  S
Fe482       O493   2.056       .  S
Fe482       O498   2.055       .  S
Fe482       O492   1.952       .  S
Fe483       O501   2.062       .  S
Fe483       O488   2.053       .  S
Fe483       O495   2.067       .  S
Fe483       O484   2.055       .  S
Fe483       O492   1.947       .  S
O484        C491   1.268       .  A
O485        C499   1.270       .  A
O486        C491   1.267       .  A
O487        C490   1.273       .  A
O488        C500   1.266       .  A
O489        C502   1.274       .  A
C490        O495   1.273       .  A
C490       C1122   1.501       .  S
C491       C1253   1.464       .  S
O493        C496   1.267       .  A
O494        C496   1.266       .  A
C496       C1154   1.478       .  S
O497        C502   1.276       .  A
O498        C500   1.268       .  A
C499        O501   1.273       .  A
C499       C1349   1.506       .  S
C500       C1138   1.469       .  S
C502       C2789   1.500       .  S
Fe503       O519   2.054       .  S
Fe503       O509   2.039       .  S
Fe503       O516   2.065       .  S
Fe503       O508   2.070       .  S
Fe503       O514   1.957       .  S
Fe504       O507   2.062       .  S
Fe504       O511   2.053       .  S
Fe504       O515   2.072       .  S
Fe504       O520   2.095       .  S
Fe504       O514   1.960       .  S
Fe505       O523   2.052       .  S
Fe505       O510   2.062       .  S
Fe505       O517   2.074       .  S
Fe505       O506   2.061       .  S
Fe505       O514   1.949       .  S
O506        C513   1.270       .  A
O507        C521   1.266       .  A
O508        C513   1.272       .  A
O509        C512   1.262       .  A
O510        C522   1.275       .  A
O511        C524   1.270       .  A
C512        O517   1.273       .  A
C512       C1109   1.487       .  S
C513       C2162   1.505       .  S
O515        C518   1.273       .  A
O516        C518   1.272       .  A
C518       C1090   1.502       .  S
O519        C524   1.266       .  A
O520        C522   1.278       .  A
C521        O523   1.263       .  A
C521       C1157   1.480       .  S
C522       C2770   1.489       .  S
C524       C1301   1.472       .  S
Fe525       O541   2.072       .  S
Fe525       O531   2.067       .  S
Fe525       O538   2.055       .  S
Fe525       O530   2.068       .  S
Fe525       O536   1.949       .  S
Fe526       O529   2.070       .  S
Fe526       O533   2.071       .  S
Fe526       O537   2.046       .  S
Fe526       O542   2.021       .  S
Fe526       O536   1.954       .  S
Fe527       O545   2.081       .  S
Fe527       O532   2.061       .  S
Fe527       O539   2.084       .  S
Fe527       O528   2.036       .  S
Fe527       O536   1.954       .  S
O528        C535   1.264       .  A
O529        C543   1.275       .  A
O530        C535   1.268       .  A
O531        C534   1.270       .  A
O532        C544   1.267       .  A
O533        C546   1.270       .  A
C534        O539   1.281       .  A
C534       C1365   1.510       .  S
C535       C1173   1.484       .  S
O537        C540   1.262       .  A
O538        C540   1.268       .  A
C540       C1141   1.478       .  S
O541        C546   1.276       .  A
O542        C544   1.262       .  A
C543        O545   1.275       .  A
C543       C1989   1.504       .  S
C544       C1074   1.458       .  S
C546       C1333   1.496       .  S
Fe547       O563   2.062       .  S
Fe547       O553   2.068       .  S
Fe547       O560   2.063       .  S
Fe547       O552   2.054       .  S
Fe547       O558   1.942       .  S
Fe548       O551   2.064       .  S
Fe548       O555   2.070       .  S
Fe548       O559   2.052       .  S
Fe548       O564   2.048       .  S
Fe548       O558   1.951       .  S
Fe549       O567   2.090       .  S
Fe549       O554   2.047       .  S
Fe549       O561   2.080       .  S
Fe549       O550   2.056       .  S
Fe549       O558   1.957       .  S
O550        C557   1.266       .  A
O551        C565   1.271       .  A
O552        C557   1.268       .  A
O553        C556   1.273       .  A
O554        C566   1.265       .  A
O555        C568   1.273       .  A
C556        O561   1.276       .  A
C556       C2133   1.508       .  S
C557       C1106   1.461       .  S
O559        C562   1.266       .  A
O560        C562   1.267       .  A
C562       C1205   1.468       .  S
O563        C568   1.271       .  A
O564        C566   1.265       .  A
C565        O567   1.276       .  A
C565       C1970   1.502       .  S
C566       C1077   1.447       .  S
C568       C2002   1.496       .  S
C569        C570   1.372       .  D
C569       C1125   1.505       .  S
C569       C1221   1.516       .  S
C570       C1042   1.505       .  S
C570       C1058   1.505       .  S
C571        C572   1.374       .  D
C571       C1013   1.508   1_655  S
C571       C1029   1.512       .  S
C572       C2197   1.512   1_655  S
C572       C2274   1.508       .  S
C573        C574   1.376       .  D
C573       C1490   1.505       .  S
C573       C1589   1.512       .  S
C574        C978   1.510       .  S
C574        C997   1.512       .  S
C575        C576   1.376       .  D
C575        C946   1.513       .  S
C575        C962   1.510       .  S
C576       C1093   1.510       .  S
C576       C1269   1.511       .  S
Fe577       O593   2.109       .  S
Fe577       O583   2.075       .  S
Fe577       O590   2.068       .  S
Fe577       O582   2.058       .  S
Fe577       O588   1.959       .  S
Fe578       O581   2.050       .  S
Fe578       O585   2.070       .  S
Fe578       O589   2.034       .  S
Fe578       O594   2.063       .  S
Fe578       O588   1.946       .  S
Fe579       O597   2.071       .  S
Fe579       O584   2.046       .  S
Fe579       O591   2.056       .  S
Fe579       O580   2.061       .  S
Fe579       O588   1.955       .  S
O580        C587   1.268       .  A
O581        C595   1.266       .  A
O582        C587   1.271       .  A
O583        C586   1.274       .  A
O584        C596   1.267       .  A
O585        C598   1.277       .  A
C586        O591   1.271       .  A
C586       C2898   1.499       .  S
C587        C917   1.482       .  S
O589        C592   1.260       .  A
O590        C592   1.263       .  A
C592        C898   1.461       .  S
O593        C598   1.281       .  A
O594        C596   1.269       .  A
C595        O597   1.271       .  A
C595       C2053   1.500       .  S
C596        C933   1.484       .  S
C598       C1842   1.506       .  S
Fe599       O615   2.080       .  S
Fe599       O605   2.063       .  S
Fe599       O612   2.045       .  S
Fe599       O604   2.055       .  S
Fe599       O610   1.959       .  S
Fe600       O603   2.057       .  S
Fe600       O607   2.054       .  S
Fe600       O611   2.061       .  S
Fe600       O616   2.046       .  S
Fe600       O610   1.947       .  S
Fe601       O619   2.095       .  S
Fe601       O606   2.061       .  S
Fe601       O613   2.072       .  S
Fe601       O602   2.056       .  S
Fe601       O610   1.962       .  S
O602        C609   1.268       .  A
O603        C617   1.273       .  A
O604        C609   1.267       .  A
O605        C608   1.273       .  A
O606        C618   1.264       .  A
O607        C620   1.267       .  A
C608        O613   1.274       .  A
C608        C965   1.504       .  S
C609        C882   1.463       .  S
O611        C614   1.270       .  A
O612        C614   1.268       .  A
C614        C866   1.475       .  S
O615        C620   1.273       .  A
O616        C618   1.260       .  A
C617        O619   1.280       .  A
C617       C2917   1.491       .  S
C618        C914   1.476       .  S
C620       C1426   1.508       .  S
Fe621       O637   2.073       .  S
Fe621       O627   2.083       .  S
Fe621       O634   2.054       .  S
Fe621       O626   2.055       .  S
Fe621       O632   1.953       .  S
Fe622       O625   2.068       .  S
Fe622       O629   2.071       .  S
Fe622       O633   2.058       .  S
Fe622       O638   2.052       .  S
Fe622       O632   1.941       .  S
Fe623       O641   2.080       .  S
Fe623       O628   2.061       .  S
Fe623       O635   2.062       .  S
Fe623       O624   2.048       .  S
Fe623       O632   1.945       .  S
O624        C631   1.265       .  A
O625        C639   1.276       .  A
O626        C631   1.267       .  A
O627        C630   1.274       .  A
O628        C640   1.268       .  A
O629        C642   1.269       .  A
C630        O635   1.275       .  A
C630       C2533   1.489       .  S
C631        C834   1.465       .  S
O633        C636   1.268       .  A
O634        C636   1.268       .  A
C636        C869   1.475       .  S
O637        C642   1.276       .  A
O638        C640   1.264       .  A
C639        O641   1.272       .  A
C639       C1061   1.492       .  S
C640        C850   1.474       .  S
C642       C1445   1.505       .  S
Fe643       O659   2.076       .  S
Fe643       O649   2.072       .  S
Fe643       O656   2.040       .  S
Fe643       O648   2.030       .  S
Fe643       O654   1.954       .  S
Fe644       O647   2.083       .  S
Fe644       O651   2.066       .  S
Fe644       O655   2.060       .  S
Fe644       O660   2.053       .  S
Fe644       O654   1.949       .  S
Fe645       O663   2.094       .  S
Fe645       O650   2.038       .  S
Fe645       O657   2.101       .  S
Fe645       O646   2.058       .  S
Fe645       O654   1.958       .  S
O646        C653   1.265       .  A
O647        C661   1.277       .  A
O648        C653   1.262       .  A
O649        C652   1.275       .  A
O650        C662   1.262       .  A
O651        C664   1.273       .  A
C652        O657   1.277       .  A
C652       C1861   1.506       .  S
C653        C901   1.444       .  S
O655        C658   1.268       .  A
O656        C658   1.261       .  A
C658        C837   1.466       .  S
O659        C664   1.275       .  A
O660        C662   1.264       .  A
C661        O663   1.282       .  A
C661       C1413   1.518       .  S
C662        C821   1.446       .  S
C664       C2517   1.503       .  S
Fe665       O681   2.080       .  S
Fe665       O671   2.079       .  S
Fe665       O678   2.053       .  S
Fe665       O670   2.049       .  S
Fe665       O676   1.958       .  S
Fe666       O669   2.095       .  S
Fe666       O673   2.065       .  S
Fe666       O677   2.066       .  S
Fe666       O682   2.051       .  S
Fe666       O676   1.949       .  S
Fe667       O685   2.071       .  S
Fe667       O672   2.053       .  S
Fe667       O679   2.076       .  S
Fe667       O668   2.062       .  S
Fe667       O676   1.943       .  S
O668        C675   1.269       .  A
O669        C683   1.279       .  A
O670        C675   1.263       .  A
O671        C674   1.277       .  A
O672        C684   1.263       .  A
O673        C686   1.271       .  A
C674        O679   1.275       .  A
C674       C1026   1.509       .  S
C675        C802   1.475       .  S
O677        C680   1.269       .  A
O678        C680   1.269       .  A
C680        C786   1.475       .  S
O681        C686   1.273       .  A
O682        C684   1.263       .  A
C683        O685   1.277       .  A
C683        C949   1.499       .  S
C684        C885   1.461       .  S
C686        C981   1.497       .  S
Fe687       O703   2.071       .  S
Fe687       O693   2.072       .  S
Fe687       O700   2.059       .  S
Fe687       O692   2.041       .  S
Fe687       O698   1.959       .  S
Fe688       O691   2.065       .  S
Fe688       O695   2.075       .  S
Fe688       O699   2.040       .  S
Fe688       O704   2.061       .  S
Fe688       O698   1.954       .  S
Fe689       O707   2.082       .  S
Fe689       O694   2.038       .  S
Fe689       O701   2.071       .  S
Fe689       O690   2.062       .  S
Fe689       O698   1.958       .  S
O690        C697   1.268       .  A
O691        C705   1.274       .  A
O692        C697   1.262       .  A
O693        C696   1.276       .  A
O694        C706   1.261       .  A
O695        C708   1.274       .  A
C696        O701   1.270       .  A
C696       C1010   1.506       .  S
C697        C805   1.472       .  S
O699        C702   1.264       .  A
O700        C702   1.267       .  A
C702        C930   1.468       .  S
O703        C708   1.273       .  A
O704        C706   1.267       .  A
C705        O707   1.277       .  A
C705       C2085   1.508       .  S
C706        C770   1.461       .  S
C708       C2018   1.508       .  S
Fe709       O725   2.083       .  S
Fe709       O715   2.101       .  S
Fe709       O722   2.052       .  S
Fe709       O714   2.064       .  S
Fe709       O720   1.956       .  S
Fe710       O713   2.067       .  S
Fe710       O717   2.073       .  S
Fe710       O721   2.056       .  S
Fe710       O726   2.057       .  S
Fe710       O720   1.951       .  S
Fe711       O729   2.056       .  S
Fe711       O716   2.054       .  S
Fe711       O723   2.056       .  S
Fe711       O712   2.047       .  S
Fe711       O720   1.952       .  S
O712        C719   1.261       .  A
O713        C727   1.271       .  A
O714        C719   1.269       .  A
O715        C718   1.277       .  A
O716        C728   1.268       .  A
O717        C730   1.278       .  A
C718        O723   1.270       .  A
C718       C1045   1.495       .  S
C719        C853   1.476       .  S
O721        C724   1.264       .  A
O722        C724   1.266       .  A
C724        C789   1.475       .  S
O725        C730   1.280       .  A
O726        C728   1.268       .  A
C727        O729   1.269       .  A
C727       C3045   1.497       .  S
C728        C754   1.465       .  S
C730        C994   1.508       .  S
Fe731       O747   2.068       .  S
Fe731       O737   2.085       .  S
Fe731       O744   2.064       .  S
Fe731       O736   2.021       .  S
Fe731       O742   1.960       .  S
Fe732       O735   2.071       .  S
Fe732       O739   2.073       .  S
Fe732       O743   2.045       .  S
Fe732       O748   2.050       .  S
Fe732       O742   1.960       .  S
Fe733       O751   2.077       .  S
Fe733       O738   2.055       .  S
Fe733       O745   2.065       .  S
Fe733       O734   2.080       .  S
Fe733       O742   1.953       .  S
O734        C741   1.270       .  A
O735        C749   1.273       .  A
O736        C741   1.255       .  A
O737        C740   1.282       .  A
O738        C750   1.268       .  A
O739        C752   1.272       .  A
C740        O745   1.271       .  A
C740       C2117   1.506       .  S
C741        C773   1.484       .  S
O743        C746   1.266       .  A
O744        C746   1.270       .  A
C746        C818   1.465       .  S
O747        C752   1.269       .  A
O748        C750   1.265       .  A
C749        O751   1.274       .  A
C749       C3029   1.500       .  S
C750        C757   1.472       .  S
C752       C1397   1.506       .  S
C753        C754   1.400       .  A
C753        C758   1.400   1_655  A
C753        H760   1.084       .  S
C754        C755   1.412       .  A
C755        C756   1.398   1_655  A
C755        C762   1.509       .  S
C756        C757   1.403       .  A
C756        H761   1.084       .  S
C757        C758   1.417       .  A
C758        C759   1.509       .  S
C759        H763   1.110       .  S
C759        H764   1.110       .  S
C759        H765   1.111       .  S
C762        H766   1.110       .  S
C762        H767   1.109       .  S
C762        H768   1.111       .  S
C769        C770   1.391       .  A
C769        C774   1.395       .  A
C769        H776   1.085       .  S
C770        C771   1.412       .  A
C771        C772   1.403       .  A
C771        C778   1.508       .  S
C772        C773   1.405       .  A
C772        H777   1.084       .  S
C773        C774   1.430       .  A
C774        C775   1.513       .  S
C775        H779   1.111       .  S
C775        H780   1.110       .  S
C775        H781   1.110       .  S
C778        H782   1.109       .  S
C778        H783   1.110       .  S
C778        H784   1.111       .  S
C785        C786   1.404       .  A
C785        C790   1.402       .  A
C785        H792   1.084       .  S
C786        C787   1.416       .  A
C787        C788   1.397       .  A
C787        C794   1.510       .  S
C788        C789   1.403       .  A
C788        H793   1.085       .  S
C789        C790   1.415       .  A
C790        C791   1.507       .  S
C791        H795   1.111       .  S
C791        H796   1.108       .  S
C791        H797   1.110       .  S
C794        H798   1.109       .  S
C794        H799   1.110       .  S
C794        H800   1.111       .  S
C801        C802   1.400       .  A
C801        C806   1.397   1_655  A
C801        H808   1.084       .  S
C802        C803   1.420       .  A
C803        C804   1.398   1_655  A
C803        C810   1.510       .  S
C804        C805   1.399       .  A
C804        H809   1.084       .  S
C805        C806   1.419       .  A
C806        C807   1.511       .  S
C807        H811   1.111       .  S
C807        H812   1.109       .  S
C807        H813   1.110       .  S
C810        H814   1.109       .  S
C810        H815   1.111       .  S
C810        H816   1.111       .  S
C817        C818   1.404       .  A
C817        C822   1.403       .  A
C817        H824   1.084       .  S
C818        C819   1.413       .  A
C819        C820   1.388       .  A
C819        C826   1.500       .  S
C820        C821   1.391       .  A
C820        H825   1.086       .  S
C821        C822   1.407       .  A
C822        C823   1.504       .  S
C823        H827   1.111       .  S
C823        H828   1.110       .  S
C823        H829   1.111       .  S
C826        H830   1.107       .  S
C826        H831   1.108       .  S
C826        H832   1.107       .  S
C833        C834   1.401       .  A
C833        C838   1.399   1_655  A
C833        H840   1.084       .  S
C834        C835   1.415       .  A
C835        C836   1.396   1_655  A
C835        C842   1.510       .  S
C836        C837   1.401       .  A
C836        H841   1.085       .  S
C837        C838   1.415       .  A
C838        C839   1.508       .  S
C839        H843   1.111       .  S
C839        H844   1.110       .  S
C839        H845   1.109       .  S
C842        H846   1.110       .  S
C842        H847   1.109       .  S
C842        H848   1.111       .  S
C849        C850   1.399       .  A
C849        C854   1.399       .  A
C849        H856   1.084       .  S
C850        C851   1.417       .  A
C851        C852   1.397       .  A
C851        C858   1.506       .  S
C852        C853   1.399       .  A
C852        H857   1.084       .  S
C853        C854   1.422       .  A
C854        C855   1.510       .  S
C855        H859   1.111       .  S
C855        H860   1.110       .  S
C855        H861   1.108       .  S
C858        H862   1.109       .  S
C858        H863   1.108       .  S
C858        H864   1.111       .  S
C865        C866   1.407       .  A
C865        C870   1.396       .  A
C865        H872   1.084       .  S
C866        C867   1.412       .  A
C867        C868   1.398       .  A
C867        C874   1.508       .  S
C868        C869   1.408       .  A
C868        H873   1.084       .  S
C869        C870   1.412       .  A
C870        C871   1.507       .  S
C871        H875   1.111       .  S
C871        H876   1.108       .  S
C871        H877   1.104       .  S
C874        H878   1.111       .  S
C874        H879   1.108       .  S
C874        H880   1.111       .  S
C881        C882   1.398       .  A
C881        C886   1.398       .  A
C881        H888   1.084       .  S
C882        C883   1.411       .  A
C883        C884   1.400       .  A
C883        C890   1.508       .  S
C884        C885   1.402       .  A
C884        H889   1.084       .  S
C885        C886   1.415       .  A
C886        C887   1.510       .  S
C887        H891   1.109       .  S
C887        H892   1.103       .  S
C887        H893   1.110       .  S
C890        H894   1.110       .  S
C890        H895   1.109       .  S
C890        H896   1.111       .  S
C897        C898   1.404       .  A
C897        C902   1.410       .  A
C897        H904   1.084       .  S
C898        C899   1.407       .  A
C899        C900   1.378       .  A
C899        C906   1.488       .  S
C900        C901   1.385       .  A
C900        H905   1.086       .  S
C901        C902   1.411       .  A
C902        C903   1.503       .  S
C903        H907   1.111       .  S
C903        H908   1.111       .  S
C903        H909   1.109       .  S
C906        H910   1.109       .  S
C906        H911   1.102       .  S
C906        H912   1.108       .  S
C913        C914   1.403       .  A
C913        C918   1.404   1_655  A
C913        H920   1.084       .  S
C914        C915   1.415       .  A
C915        C916   1.396   1_655  A
C915        C922   1.510       .  S
C916        C917   1.404       .  A
C916        H921   1.084       .  S
C917        C918   1.418       .  A
C918        C919   1.507       .  S
C919        H923   1.111       .  S
C919        H924   1.110       .  S
C919        H925   1.108       .  S
C922        H926   1.110       .  S
C922        H927   1.109       .  S
C922        H928   1.111       .  S
C929        C930   1.404       .  A
C929        C934   1.400       .  A
C929        H936   1.085       .  S
C930        C931   1.407       .  A
C931        C932   1.396       .  A
C931        C938   1.509       .  S
C932        C933   1.412       .  A
C932        H937   1.083       .  S
C933        C934   1.417       .  A
C934        C935   1.508       .  S
C935        H939   1.111       .  S
C935        H940   1.110       .  S
C935        H941   1.110       .  S
C938        H942   1.110       .  S
C938        H943   1.109       .  S
C938        H944   1.111       .  S
C945        C946   1.404       .  A
C945        C950   1.409       .  A
C945        H952   1.084       .  S
C946        C947   1.424       .  A
C947        C948   1.410       .  A
C947        C954   1.504       .  S
C948        C949   1.405       .  A
C948        H953   1.084       .  S
C949        C950   1.421       .  A
C950        C951   1.508       .  S
C951        H955   1.111       .  S
C951        H956   1.110       .  S
C951        H957   1.108       .  S
C954        H958   1.110       .  S
C954        H959   1.101       .  S
C954        H960   1.111       .  S
C961        C962   1.410       .  A
C961        C966   1.416       .  A
C961        H968   1.084       .  S
C962        C963   1.416       .  A
C963        C964   1.397       .  A
C963        C970   1.505       .  S
C964        C965   1.409       .  A
C964        H969   1.084       .  S
C965        C966   1.420       .  A
C966        C967   1.505       .  S
C967        H971   1.111       .  S
C967        H972   1.109       .  S
C967        H973   1.110       .  S
C970        H974   1.094       .  S
C970        H975   1.110       .  S
C970        H976   1.107       .  S
C977        C978   1.404       .  A
C977        C982   1.410       .  A
C977        H984   1.084       .  S
C978        C979   1.421       .  A
C979        C980   1.407       .  A
C979        C986   1.504       .  S
C980        C981   1.406       .  A
C980        H985   1.085       .  S
C981        C982   1.422       .  A
C982        C983   1.508       .  S
C983        H987   1.111       .  S
C983        H988   1.110       .  S
C983        H989   1.107       .  S
C986        H990   1.110       .  S
C986        H991   1.101       .  S
C986        H992   1.110       .  S
C993        C994   1.411       .  A
C993        C998   1.400       .  A
C993       H1000   1.081       .  S
C994        C995   1.419       .  A
C995        C996   1.418       .  A
C995       C1002   1.505       .  S
C996        C997   1.412       .  A
C996       H1001   1.083       .  S
C997        C998   1.414       .  A
C998        C999   1.508       .  S
C999       H1003   1.111       .  S
C999       H1004   1.108       .  S
C999       H1005   1.104       .  S
C1002      H1006   1.109       .  S
C1002      H1007   1.110       .  S
C1002      H1008   1.111       .  S
C1009      C1010   1.407       .  A
C1009      C1014   1.411       .  A
C1009      H1016   1.084       .  S
C1010      C1011   1.430       .  A
C1011      C1012   1.404       .  A
C1011      C1018   1.511       .  S
C1012      C1013   1.399       .  A
C1012      H1017   1.084       .  S
C1013      C1014   1.421       .  A
C1014      C1015   1.503       .  S
C1015      H1019   1.110       .  S
C1015      H1020   1.100       .  S
C1015      H1021   1.110       .  S
C1018      H1022   1.110       .  S
C1018      H1023   1.110       .  S
C1018      H1024   1.111       .  S
C1025      C1026   1.412       .  A
C1025      C1030   1.405       .  A
C1025      H1032   1.083       .  S
C1026      C1027   1.421       .  A
C1027      C1028   1.414       .  A
C1027      C1034   1.506       .  S
C1028      C1029   1.408       .  A
C1028      H1033   1.082       .  S
C1029      C1030   1.412       .  A
C1030      C1031   1.505       .  S
C1031      H1035   1.111       .  S
C1031      H1036   1.103       .  S
C1031      H1037   1.108   1_655  S
C1034      H1038   1.110       .  S
C1034      H1039   1.110       .  S
C1034      H1040   1.111       .  S
C1041      C1042   1.402       .  A
C1041      C1046   1.407       .  A
C1041      H1048   1.084       .  S
C1042      C1043   1.420       .  A
C1043      C1044   1.409       .  A
C1043      C1050   1.504       .  S
C1044      C1045   1.405       .  A
C1044      H1049   1.084       .  S
C1045      C1046   1.422       .  A
C1046      C1047   1.508       .  S
C1047      H1051   1.111       .  S
C1047      H1052   1.106       .  S
C1047      H1053   1.110       .  S
C1050      H1054   1.102       .  S
C1050      H1055   1.110       .  S
C1050      H1056   1.110       .  S
C1057      C1058   1.406       .  A
C1057      C1062   1.411       .  A
C1057      H1064   1.084       .  S
C1058      C1059   1.415       .  A
C1059      C1060   1.404       .  A
C1059      C1066   1.503       .  S
C1060      C1061   1.404       .  A
C1060      H1065   1.084       .  S
C1061      C1062   1.420       .  A
C1062      C1063   1.507       .  S
C1063      H1067   1.111       .  S
C1063      H1068   1.110       .  S
C1063      H1069   1.108       .  S
C1066      H1070   1.108       .  S
C1066      H1071   1.107       .  S
C1066      H1072   1.111       .  S
C1073      C1074   1.402       .  A
C1073      C1078   1.383   1_556  A
C1073      H1080   1.083       .  S
C1074      C1075   1.412       .  A
C1075      C1076   1.402   1_556  A
C1075      C1082   1.506       .  S
C1076      C1077   1.402       .  A
C1076      H1081   1.084       .  S
C1077      C1078   1.402       .  A
C1078      C1079   1.503       .  S
C1079      H1083   1.111       .  S
C1079      H1084   1.100       .  S
C1079      H1085   1.110       .  S
C1082      H1086   1.109       .  S
C1082      H1087   1.111       .  S
C1082      H1088   1.111       .  S
C1089      C1090   1.408       .  A
C1089      C1094   1.398       .  A
C1089      H1096   1.081       .  S
C1090      C1091   1.417       .  A
C1091      C1092   1.417       .  A
C1091      C1098   1.504       .  S
C1092      C1093   1.412       .  A
C1092      H1097   1.083       .  S
C1093      C1094   1.415       .  A
C1094      C1095   1.509       .  S
C1095      H1099   1.109       .  S
C1095      H1100   1.108       .  S
C1095      H1101   1.103       .  S
C1098      H1102   1.109       .  S
C1098      H1103   1.110       .  S
C1098      H1104   1.111       .  S
C1105      C1106   1.392       .  A
C1105      C1110   1.395       .  A
C1105      H1112   1.085       .  S
C1106      C1107   1.409       .  A
C1107      C1108   1.403       .  A
C1107      C1114   1.507       .  S
C1108      C1109   1.408       .  A
C1108      H1113   1.084       .  S
C1109      C1110   1.429       .  A
C1110      C1111   1.513       .  S
C1111      H1115   1.111       .  S
C1111      H1116   1.110       .  S
C1111      H1117   1.110       .  S
C1114      H1118   1.111       .  S
C1114      H1119   1.109       .  S
C1114      H1120   1.111       .  S
C1121      C1122   1.411       .  A
C1121      C1126   1.398       .  A
C1121      H1128   1.084       .  S
C1122      C1123   1.418       .  A
C1123      C1124   1.414       .  A
C1123      C1130   1.505       .  S
C1124      C1125   1.411       .  A
C1124      H1129   1.083       .  S
C1125      C1126   1.413       .  A
C1126      C1127   1.507       .  S
C1127      H1131   1.109       .  S
C1127      H1132   1.111       .  S
C1127      H1133   1.102       .  S
C1130      H1134   1.110       .  S
C1130      H1135   1.109       .  S
C1130      H1136   1.111       .  S
C1137      C1138   1.401       .  A
C1137      C1142   1.400       .  A
C1137      H1144   1.084       .  S
C1138      C1139   1.415       .  A
C1139      C1140   1.395       .  A
C1139      C1146   1.511       .  S
C1140      C1141   1.404       .  A
C1140      H1145   1.084       .  S
C1141      C1142   1.419       .  A
C1142      C1143   1.508       .  S
C1143      H1147   1.111       .  S
C1143      H1148   1.110       .  S
C1143      H1149   1.110       .  S
C1146      H1150   1.109       .  S
C1146      H1151   1.110       .  S
C1146      H1152   1.111       .  S
C1153      C1154   1.403       .  A
C1153      C1158   1.398   1_556  A
C1153      H1160   1.085       .  S
C1154      C1155   1.414       .  A
C1155      C1156   1.404   1_556  A
C1155      C1162   1.507       .  S
C1156      C1157   1.406       .  A
C1156      H1161   1.084       .  S
C1157      C1158   1.417       .  A
C1158      C1159   1.511       .  S
C1159      H1163   1.111       .  S
C1159      H1164   1.110       .  S
C1159      H1165   1.109       .  S
C1162      H1166   1.110       .  S
C1162      H1167   1.110       .  S
C1162      H1168   1.111       .  S
C1169      C1170   1.403       .  A
C1169      C1174   1.403       .  A
C1169      H1176   1.085       .  S
C1170      C1171   1.405       .  A
C1171      C1172   1.393       .  A
C1171      C1178   1.510       .  S
C1172      C1173   1.412       .  A
C1172      H1177   1.083       .  S
C1173      C1174   1.418       .  A
C1174      C1175   1.508       .  S
C1175      H1179   1.111       .  S
C1175      H1180   1.110       .  S
C1175      H1181   1.111       .  S
C1178      H1182   1.110       .  S
C1178      H1183   1.110       .  S
C1178      H1184   1.111       .  S
C1185      C1186   1.401       .  A
C1185      C1190   1.396   1_554  A
C1185      H1192   1.085       .  S
C1186      C1187   1.414       .  A
C1187      C1188   1.398   1_554  A
C1187      C1194   1.508       .  S
C1188      C1189   1.400       .  A
C1188      H1193   1.084       .  S
C1189      C1190   1.413       .  A
C1190      C1191   1.510       .  S
C1191      H1195   1.111       .  S
C1191      H1196   1.110       .  S
C1191      H1197   1.109       .  S
C1194      H1198   1.110       .  S
C1194      H1199   1.110       .  S
C1194      H1200   1.111       .  S
C1201      C1202   1.402       .  A
C1201      C1206   1.400       .  A
C1201      H1208   1.084       .  S
C1202      C1203   1.413       .  A
C1203      C1204   1.401       .  A
C1203      C1210   1.507       .  S
C1204      C1205   1.402       .  A
C1204      H1209   1.084       .  S
C1205      C1206   1.413       .  A
C1206      C1207   1.509       .  S
C1207      H1211   1.111       .  S
C1207      H1212   1.111       .  S
C1207      H1213   1.109       .  S
C1210      H1214   1.110       .  S
C1210      H1215   1.110       .  S
C1210      H1216   1.111       .  S
C1217      C1218   1.407       .  A
C1217      C1222   1.409       .  A
C1217      H1224   1.084       .  S
C1218      C1219   1.417       .  A
C1219      C1220   1.408       .  A
C1219      C1226   1.508       .  S
C1220      C1221   1.409       .  A
C1220      H1225   1.081       .  S
C1221      C1222   1.417       .  A
C1222      C1223   1.506       .  S
C1223      H1227   1.111       .  S
C1223      H1228   1.110       .  S
C1223      H1229   1.108       .  S
C1226      H1230   1.110       .  S
C1226      H1231   1.108       .  S
C1226      H1232   1.111       .  S
C1233      C1234   1.405       .  A
C1233      C1238   1.402       .  A
C1233      H1240   1.084       .  S
C1234      C1235   1.422       .  A
C1235      C1236   1.390       .  A
C1235      C1242   1.504       .  S
C1236      C1237   1.389       .  A
C1236      H1241   1.086       .  S
C1237      C1238   1.408       .  A
C1238      C1239   1.506       .  S
C1239      H1243   1.111       .  S
C1239      H1244   1.111       .  S
C1239      H1245   1.110       .  S
C1242      H1246   1.109       .  S
C1242      H1247   1.104       .  S
C1242      H1248   1.110       .  S
C1249      C1250   1.402       .  A
C1249      C1254   1.396       .  A
C1249      H1256   1.085       .  S
C1250      C1251   1.416       .  A
C1251      C1252   1.400       .  A
C1251      C1258   1.508       .  S
C1252      C1253   1.400       .  A
C1252      H1257   1.085       .  S
C1253      C1254   1.413       .  A
C1254      C1255   1.509       .  S
C1255      H1259   1.111       .  S
C1255      H1260   1.108       .  S
C1255      H1261   1.110       .  S
C1258      H1262   1.111       .  S
C1258      H1263   1.110       .  S
C1258      H1264   1.111       .  S
C1265      C1266   1.405       .  A
C1265      C1270   1.406       .  A
C1265      H1272   1.085       .  S
C1266      C1267   1.421       .  A
C1267      C1268   1.410       .  A
C1267      C1274   1.507       .  S
C1268      C1269   1.404       .  A
C1268      H1273   1.084       .  S
C1269      C1270   1.421       .  A
C1270      C1271   1.503       .  S
C1271      H1275   1.111       .  S
C1271      H1276   1.110       .  S
C1271      H1277   1.102       .  S
C1274      H1278   1.110       .  S
C1274      H1279   1.109       .  S
C1274      H1280   1.111       .  S
C1281      C1282   1.405       .  A
C1281      C1286   1.393   1_554  A
C1281      H1288   1.083       .  S
C1282      C1283   1.418       .  A
C1283      C1284   1.406   1_554  A
C1283      C1290   1.501       .  S
C1284      C1285   1.405       .  A
C1284      H1289   1.084       .  S
C1285      C1286   1.422       .  A
C1286      C1287   1.512       .  S
C1287      H1291   1.111       .  S
C1287      H1292   1.110       .  S
C1287      H1293   1.106       .  S
C1290      H1294   1.106       .  S
C1290      H1295   1.109       .  S
C1290      H1296   1.111       .  S
C1297      C1298   1.405       .  A
C1297      C1302   1.403       .  A
C1297      H1304   1.084       .  S
C1298      C1299   1.412       .  A
C1299      C1300   1.391       .  A
C1299      C1306   1.503       .  S
C1300      C1301   1.401       .  A
C1300      H1305   1.085       .  S
C1301      C1302   1.415       .  A
C1302      C1303   1.507       .  S
C1303      H1307   1.111       .  S
C1303      H1308   1.106       .  S
C1303      H1309   1.110       .  S
C1306      H1310   1.109       .  S
C1306      H1311   1.105       .  S
C1306      H1312   1.111       .  S
C1313      C1314   1.401       .  A
C1313      C1318   1.397       .  A
C1313      H1320   1.084       .  S
C1314      C1315   1.419       .  A
C1315      C1316   1.399       .  A
C1315      C1322   1.509       .  S
C1316      C1317   1.401       .  A
C1316      H1321   1.084       .  S
C1317      C1318   1.419       .  A
C1318      C1319   1.511       .  S
C1319      H1323   1.111       .  S
C1319      H1324   1.109       .  S
C1319      H1325   1.110       .  S
C1322      H1326   1.109       .  S
C1322      H1327   1.110       .  S
C1322      H1328   1.111       .  S
C1329      C1330   1.404       .  A
C1329      C1334   1.409       .  A
C1329      H1336   1.082       .  S
C1330      C1331   1.413       .  A
C1331      C1332   1.405       .  A
C1331      C1338   1.502       .  S
C1332      C1333   1.406       .  A
C1332      H1337   1.084       .  S
C1333      C1334   1.422       .  A
C1334      C1335   1.508       .  S
C1335      H1339   1.111       .  S
C1335      H1340   1.110       .  S
C1335      H1341   1.108       .  S
C1338      H1342   1.109       .  S
C1338      H1343   1.108       .  S
C1338      H1344   1.111       .  S
C1345      C1346   1.402       .  A
C1345      C1350   1.409       .  A
C1345      H1352   1.084       .  S
C1346      C1347   1.420       .  A
C1347      C1348   1.406       .  A
C1347      C1354   1.498       .  S
C1348      C1349   1.406       .  A
C1348      H1353   1.084       .  S
C1349      C1350   1.428       .  A
C1350      C1351   1.509       .  S
C1351      H1355   1.111       .  S
C1351      H1356   1.110       .  S
C1351      H1357   1.110       .  S
C1354      H1358   1.094       .  S
C1354      H1359   1.110       .  S
C1354      H1360   1.111       .  S
C1361      C1362   1.399       .  A
C1361      C1366   1.407       .  A
C1361      H1368   1.082       .  S
C1362      C1363   1.423       .  A
C1363      C1364   1.412       .  A
C1363      C1370   1.502       .  S
C1364      C1365   1.407       .  A
C1364      H1369   1.084       .  S
C1365      C1366   1.430       .  A
C1366      C1367   1.511       .  S
C1367      H1371   1.111       .  S
C1367      H1372   1.110       .  S
C1367      H1373   1.110       .  S
C1370      H1374   1.110       .  S
C1370      H1375   1.101       .  S
C1370      H1376   1.110       .  S
C1377      C1378   1.409       .  A
C1377      C1382   1.415       .  A
C1377      H1384   1.083       .  S
C1378      C1379   1.413       .  A
C1379      C1380   1.403       .  A
C1379      C1386   1.501       .  S
C1380      C1381   1.410       .  A
C1380      H1385   1.084       .  S
C1381      C1382   1.422       .  A
C1382      C1383   1.506       .  S
C1383      H1387   1.111       .  S
C1383      H1388   1.110       .  S
C1383      H1389   1.110       .  S
C1386      H1390   1.107       .  S
C1386      H1391   1.102       .  S
C1386      H1392   1.111       .  S
C1393      C1394   1.408       .  A
C1393      C1398   1.411       .  A
C1393      H1400   1.075       .  S
C1394      C1395   1.416       .  A
C1395      C1396   1.410       .  A
C1395      C1402   1.504       .  S
C1396      C1397   1.412       .  A
C1396      H1401   1.084       .  S
C1397      C1398   1.419       .  A
C1398      C1399   1.508       .  S
C1399      H1403   1.111       .  S
C1399      H1404   1.110       .  S
C1399      H1405   1.109       .  S
C1402      H1406   1.106       .  S
C1402      H1407   1.107       .  S
C1402      H1408   1.111       .  S
C1409      C1410   1.411       .  A
C1409      C1414   1.419       .  A
C1409      H1416   1.080       .  S
C1410      C1411   1.416       .  A
C1411      C1412   1.408       .  A
C1411      C1418   1.503       .  S
C1412      C1413   1.413       .  A
C1412      H1417   1.084       .  S
C1413      C1414   1.422       .  A
C1414      C1415   1.506       .  S
C1415      H1419   1.111       .  S
C1415      H1420   1.110       .  S
C1415      H1421   1.110       .  S
C1418      H1422   1.098       .  S
C1418      H1423   1.110       .  S
C1418      H1424   1.110       .  S
C1425      C1426   1.413       .  A
C1425      C1430   1.401       .  A
C1425      H1432   1.083       .  S
C1426      C1427   1.419       .  A
C1427      C1428   1.416       .  A
C1427      C1434   1.506       .  S
C1428      C1429   1.412       .  A
C1428      H1433   1.082       .  S
C1429      C1430   1.412       .  A
C1430      C1431   1.508       .  S
C1431      H1435   1.111       .  S
C1431      H1436   1.108       .  S
C1431      H1437   1.104       .  S
C1434      H1438   1.109       .  S
C1434      H1439   1.110       .  S
C1434      H1440   1.111       .  S
C1441      C1442   1.398       .  A
C1441      C1446   1.405       .  A
C1441      H1448   1.085       .  S
C1442      C1443   1.419       .  A
C1443      C1444   1.410       .  A
C1443      C1450   1.504       .  S
C1444      C1445   1.409       .  A
C1444      H1449   1.084       .  S
C1445      C1446   1.429       .  A
C1446      C1447   1.510       .  S
C1447      H1451   1.111       .  S
C1447      H1452   1.110       .  S
C1447      H1453   1.107       .  S
C1450      H1454   1.110       .  S
C1450      H1455   1.105       .  S
C1450      H1456   1.110       .  S
C1457      C1458   1.405       .  A
C1457      C1462   1.409       .  A
C1457      H1464   1.084       .  S
C1458      C1459   1.421       .  A
C1459      C1460   1.415       .  A
C1459      C1466   1.507       .  S
C1460      C1461   1.406       .  A
C1460      H1465   1.083       .  S
C1461      C1462   1.420       .  A
C1462      C1463   1.504       .  S
C1463      H1467   1.111       .  S
C1463      H1468   1.101       .  S
C1463      H1469   1.110       .  S
C1466      H1470   1.110       .  S
C1466      H1471   1.109       .  S
C1466      H1472   1.111       .  S
C1473      C1474   1.402       .  A
C1473      C1478   1.395   1_565  A
C1473      H1480   1.085       .  S
C1474      C1475   1.413       .  A
C1475      C1476   1.397   1_565  A
C1475      C1482   1.508       .  S
C1476      C1477   1.401       .  A
C1476      H1481   1.084       .  S
C1477      C1478   1.411       .  A
C1478      C1479   1.509       .  S
C1479      H1483   1.111       .  S
C1479      H1484   1.111       .  S
C1479      H1485   1.109       .  S
C1482      H1486   1.110       .  S
C1482      H1487   1.111       .  S
C1482      H1488   1.110       .  S
C1489      C1490   1.397       .  A
C1489      C1494   1.404       .  A
C1489      H1496   1.085       .  S
C1490      C1491   1.420       .  A
C1491      C1492   1.412       .  A
C1491      C1498   1.503       .  S
C1492      C1493   1.408       .  A
C1492      H1497   1.084       .  S
C1493      C1494   1.431       .  A
C1494      C1495   1.511       .  S
C1495      H1499   1.111       .  S
C1495      H1500   1.110       .  S
C1495      H1501   1.109       .  S
C1498      H1502   1.110       .  S
C1498      H1503   1.102       .  S
C1498      H1504   1.110       .  S
C1505      C1506   1.410       .  A
C1505      C1510   1.410       .  A
C1505      H1512   1.084       .  S
C1506      C1507   1.414       .  A
C1507      C1508   1.410       .  A
C1507      C1514   1.507       .  S
C1508      C1509   1.411       .  A
C1508      H1513   1.080       .  S
C1509      C1510   1.418       .  A
C1510      C1511   1.515       .  S
C1511      H1515   1.110       .  S
C1511      H1516   1.099       .  S
C1511      H1517   1.104       .  S
C1514      H1518   1.110       .  S
C1514      H1519   1.108       .  S
C1514      H1520   1.111       .  S
C1521      C1522   1.408       .  A
C1521      C1526   1.412       .  A
C1521      H1528   1.084       .  S
C1522      C1523   1.412       .  A
C1523      C1524   1.381       .  A
C1523      C1530   1.491       .  S
C1524      C1525   1.384       .  A
C1524      H1529   1.087       .  S
C1525      C1526   1.411       .  A
C1526      C1527   1.504       .  S
C1527      H1531   1.111       .  S
C1527      H1532   1.110       .  S
C1527      H1533   1.111       .  S
C1530      H1534   1.108       .  S
C1530      H1535   1.109       .  S
C1530      H1536   1.108       .  S
C1537      C1538   1.404       .  A
C1537      C1542   1.404       .  A
C1537      H1544   1.085       .  S
C1538      C1539   1.420       .  A
C1539      C1540   1.413       .  A
C1539      C1546   1.507       .  S
C1540      C1541   1.409       .  A
C1540      H1545   1.083       .  S
C1541      C1542   1.420       .  A
C1542      C1543   1.501       .  S
C1543      H1547   1.111       .  S
C1543      H1548   1.092       .  S
C1543      H1549   1.110       .  S
C1546      H1550   1.109       .  S
C1546      H1551   1.110       .  S
C1546      H1552   1.111       .  S
C1553      C1554   1.401       .  A
C1553      C1558   1.400   1_565  A
C1553      H1560   1.084       .  S
C1554      C1555   1.415       .  A
C1555      C1556   1.398   1_565  A
C1555      C1562   1.510       .  S
C1556      C1557   1.402       .  A
C1556      H1561   1.084       .  S
C1557      C1558   1.417       .  A
C1558      C1559   1.508       .  S
C1559      H1563   1.111       .  S
C1559      H1564   1.108       .  S
C1559      H1565   1.110       .  S
C1562      H1566   1.108       .  S
C1562      H1567   1.111       .  S
C1562      H1568   1.111       .  S
C1569      C1570   1.401       .  A
C1569      C1574   1.400       .  A
C1569      H1576   1.084       .  S
C1570      C1571   1.419       .  A
C1571      C1572   1.397       .  A
C1571      C1578   1.511       .  S
C1572      C1573   1.401       .  A
C1572      H1577   1.084       .  S
C1573      C1574   1.419       .  A
C1574      C1575   1.510       .  S
C1575      H1579   1.111       .  S
C1575      H1580   1.109       .  S
C1575      H1581   1.110       .  S
C1578      H1582   1.109       .  S
C1578      H1583   1.110       .  S
C1578      H1584   1.111       .  S
C1585      C1586   1.404       .  A
C1585      C1590   1.405       .  A
C1585      H1592   1.084       .  S
C1586      C1587   1.414       .  A
C1587      C1588   1.410       .  A
C1587      C1594   1.506       .  S
C1588      C1589   1.410       .  A
C1588      H1593   1.083       .  S
C1589      C1590   1.418       .  A
C1590      C1591   1.507       .  S
C1591      H1595   1.111       .  S
C1591      H1596   1.108       .  S
C1591      H1597   1.105       .  S
C1594      H1598   1.109       .  S
C1594      H1599   1.110       .  S
C1594      H1600   1.111       .  S
C1601      C1602   1.404       .  A
C1601      C1606   1.401       .  A
C1601      H1608   1.084       .  S
C1602      C1603   1.418       .  A
C1603      C1604   1.392       .  A
C1603      C1610   1.512       .  S
C1604      C1605   1.403       .  A
C1604      H1609   1.084       .  S
C1605      C1606   1.416       .  A
C1606      C1607   1.508       .  S
C1607      H1611   1.111       .  S
C1607      H1612   1.109       .  S
C1607      H1613   1.110       .  S
C1610      H1614   1.110       .  S
C1610      H1615   1.110       .  S
C1610      H1616   1.111       .  S
C1617      C1618   1.407       .  A
C1617      C1622   1.410       .  A
C1617      H1624   1.084       .  S
C1618      C1619   1.424       .  A
C1619      C1620   1.407       .  A
C1619      C1626   1.512       .  S
C1620      C1621   1.402       .  A
C1620      H1625   1.084       .  S
C1621      C1622   1.422       .  A
C1622      C1623   1.504       .  S
C1623      H1627   1.110       .  S
C1623      H1628   1.102       .  S
C1623      H1629   1.110       .  S
C1626      H1630   1.110       .  S
C1626      H1631   1.104       .  S
C1626      H1632   1.111       .  S
C1633      C1634   1.401       .  A
C1633      C1638   1.397       .  A
C1633      H1640   1.085       .  S
C1634      C1635   1.415       .  A
C1635      C1636   1.397       .  A
C1635      C1642   1.505       .  S
C1636      C1637   1.399       .  A
C1636      H1641   1.085       .  S
C1637      C1638   1.413       .  A
C1638      C1639   1.509       .  S
C1639      H1643   1.111       .  S
C1639      H1644   1.108       .  S
C1639      H1645   1.111       .  S
C1642      H1646   1.105       .  S
C1642      H1647   1.109       .  S
C1642      H1648   1.111       .  S
C1649      C1650   1.403       .  A
C1649      C1654   1.399   1_565  A
C1649      H1656   1.084       .  S
C1650      C1651   1.416       .  A
C1651      C1652   1.402   1_565  A
C1651      C1658   1.508       .  S
C1652      C1653   1.404       .  A
C1652      H1657   1.084       .  S
C1653      C1654   1.416       .  A
C1654      C1655   1.510       .  S
C1655      H1659   1.111       .  S
C1655      H1660   1.109       .  S
C1655      H1661   1.110       .  S
C1658      H1662   1.111       .  S
C1658      H1663   1.110       .  S
C1658      H1664   1.111       .  S
C1665      C1666   1.404       .  A
C1665      C1670   1.400       .  A
C1665      H1672   1.085       .  S
C1666      C1667   1.411       .  A
C1667      C1668   1.396       .  A
C1667      C1674   1.504       .  S
C1668      C1669   1.402       .  A
C1668      H1673   1.085       .  S
C1669      C1670   1.414       .  A
C1670      C1671   1.509       .  S
C1671      H1675   1.110       .  S
C1671      H1676   1.109       .  S
C1671      H1677   1.104       .  S
C1674      H1678   1.109       .  S
C1674      H1679   1.108       .  S
C1674      H1680   1.111       .  S
C1681      C1682   1.412       .  A
C1681      C1686   1.393       .  A
C1681      H1688   1.084       .  S
C1682      C1683   1.417       .  A
C1683      C1684   1.401       .  A
C1683      C1690   1.503       .  S
C1684      C1685   1.399       .  A
C1684      H1689   1.085       .  S
C1685      C1686   1.404       .  A
C1686      C1687   1.509       .  S
C1687      H1691   1.108       .  S
C1687      H1692   1.110       .  S
C1687      H1693   1.111       .  S
C1690      H1694   1.108       .  S
C1690      H1695   1.109       .  S
C1690      H1696   1.111       .  S
C1697      C1698   1.407       .  A
C1697      C1702   1.403       .  A
C1697      H1704   1.084       .  S
C1698      C1699   1.412       .  A
C1699      C1700   1.395       .  A
C1699      C1706   1.510       .  S
C1700      C1701   1.410       .  A
C1700      H1705   1.084       .  S
C1701      C1702   1.415       .  A
C1702      C1703   1.508       .  S
C1703      H1707   1.111       .  S
C1703      H1708   1.111       .  S
C1703      H1709   1.110       .  S
C1706      H1710   1.110       .  S
C1706      H1711   1.111       .  S
C1706      H1712   1.111       .  S
C1713      C1714   1.409       .  A
C1713      C1718   1.407       .  A
C1713      H1720   1.084       .  S
C1714      C1715   1.423       .  A
C1715      C1716   1.384       .  A
C1715      C1722   1.514       .  S
C1716      C1717   1.399       .  A
C1716      H1721   1.082       .  S
C1717      C1718   1.414       .  A
C1718      C1719   1.507       .  S
C1719      H1723   1.111       .  S
C1719      H1724   1.111       .  S
C1719      H1725   1.110       .  S
C1722      H1726   1.110       .  S
C1722      H1727   1.107       .  S
C1722      H1728   1.111       .  S
C1729      C1730   1.411       .  A
C1729      C1734   1.390   1_565  A
C1729      H1736   1.083       .  S
C1730      C1731   1.417       .  A
C1731      C1732   1.399   1_565  A
C1731      C1738   1.509       .  S
C1732      C1733   1.402       .  A
C1732      H1737   1.085       .  S
C1733      C1734   1.405       .  A
C1734      C1735   1.510       .  S
C1735      H1739   1.111       .  S
C1735      H1740   1.110       .  S
C1735      H1741   1.111       .  S
C1738      H1742   1.111       .  S
C1738      H1743   1.110       .  S
C1738      H1744   1.111       .  S
C1745      C1746   1.405       .  A
C1745      C1750   1.410       .  A
C1745      H1752   1.084       .  S
C1746      C1747   1.420       .  A
C1747      C1748   1.411       .  A
C1747      C1754   1.506       .  S
C1748      C1749   1.409       .  A
C1748      H1753   1.084       .  S
C1749      C1750   1.421       .  A
C1750      C1751   1.508       .  S
C1751      H1755   1.111       .  S
C1751      H1756   1.110       .  S
C1751      H1757   1.106       .  S
C1754      H1758   1.106       .  S
C1754      H1759   1.110       .  S
C1754      H1760   1.110       .  S
C1761      C1762   1.397       .  A
C1761      C1766   1.404       .  A
C1761      H1768   1.078       .  S
C1762      C1763   1.406       .  A
C1763      C1764   1.418       .  A
C1763      C1770   1.503       .  S
C1764      C1765   1.422       .  A
C1764      H1769   1.078       .  S
C1765      C1766   1.432       .  A
C1766      C1767   1.509       .  S
C1767      H1771   1.106       .  S
C1767      H1772   1.108       .  S
C1767      H1773   1.111       .  S
C1770      H1774   1.110       .  S
C1770      H1775   1.111       .  S
C1770      H1776   1.111       .  S
C1777      C1778   1.412       .  A
C1777      C1782   1.406       .  A
C1777      H1784   1.083       .  S
C1778      C1779   1.424       .  A
C1779      C1780   1.416       .  A
C1779      C1786   1.506       .  S
C1780      C1781   1.407       .  A
C1780      H1785   1.083       .  S
C1781      C1782   1.413       .  A
C1782      C1783   1.506       .  S
C1783      H1787   1.108       .  S
C1783      H1788   1.106       .  S
C1783      H1789   1.111       .  S
C1786      H1790   1.110       .  S
C1786      H1791   1.110       .  S
C1786      H1792   1.111       .  S
C1793      C1794   1.406       .  A
C1793      C1798   1.407       .  A
C1793      H1800   1.081       .  S
C1794      C1795   1.413       .  A
C1795      C1796   1.409       .  A
C1795      C1802   1.505       .  S
C1796      C1797   1.410       .  A
C1796      H1801   1.084       .  S
C1797      C1798   1.420       .  A
C1798      C1799   1.509       .  S
C1799      H1803   1.111       .  S
C1799      H1804   1.108       .  S
C1799      H1805   1.110       .  S
C1802      H1806   1.111       .  S
C1802      H1807   1.109       .  S
C1802      H1808   1.110       .  S
C1809      C1810   1.405       .  A
C1809      C1814   1.411       .  A
C1809      H1816   1.082       .  S
C1810      C1811   1.417       .  A
C1811      C1812   1.403       .  A
C1811      C1818   1.501       .  S
C1812      C1813   1.406       .  A
C1812      H1817   1.085       .  S
C1813      C1814   1.421       .  A
C1814      C1815   1.507       .  S
C1815      H1819   1.111       .  S
C1815      H1820   1.110       .  S
C1815      H1821   1.110       .  S
C1818      H1822   1.110       .  S
C1818      H1823   1.097       .  S
C1818      H1824   1.111       .  S
C1825      C1826   1.400       .  A
C1825      C1830   1.403       .  A
C1825      H1832   1.081       .  S
C1826      C1827   1.417       .  A
C1827      C1828   1.409       .  A
C1827      C1834   1.506       .  S
C1828      C1829   1.408       .  A
C1828      H1833   1.084       .  S
C1829      C1830   1.422       .  A
C1830      C1831   1.509       .  S
C1831      H1835   1.111       .  S
C1831      H1836   1.110       .  S
C1831      H1837   1.108       .  S
C1834      H1838   1.110       .  S
C1834      H1839   1.106       .  S
C1834      H1840   1.110       .  S
C1841      C1842   1.410       .  A
C1841      C1846   1.409       .  A
C1841      H1848   1.083       .  S
C1842      C1843   1.420       .  A
C1843      C1844   1.413       .  A
C1843      C1850   1.507       .  S
C1844      C1845   1.408       .  A
C1844      H1849   1.084       .  S
C1845      C1846   1.416       .  A
C1846      C1847   1.507       .  S
C1847      H1851   1.110       .  S
C1847      H1852   1.109       .  S
C1847      H1853   1.100       .  S
C1850      H1854   1.108       .  S
C1850      H1855   1.110       .  S
C1850      H1856   1.111       .  S
C1857      C1858   1.405       .  A
C1857      C1862   1.413       .  A
C1857      H1864   1.084       .  S
C1858      C1859   1.423       .  A
C1859      C1860   1.413       .  A
C1859      C1866   1.502       .  S
C1860      C1861   1.406       .  A
C1860      H1865   1.084       .  S
C1861      C1862   1.423       .  A
C1862      C1863   1.507       .  S
C1863      H1867   1.111       .  S
C1863      H1868   1.110       .  S
C1863      H1869   1.106       .  S
C1866      H1870   1.110       .  S
C1866      H1871   1.099       .  S
C1866      H1872   1.110       .  S
C1873      C1874   1.406       .  A
C1873      C1878   1.411       .  A
C1873      H1880   1.079       .  S
C1874      C1875   1.415       .  A
C1875      C1876   1.409       .  A
C1875      C1882   1.502       .  S
C1876      C1877   1.410       .  A
C1876      H1881   1.084       .  S
C1877      C1878   1.422       .  A
C1878      C1879   1.508       .  S
C1879      H1883   1.111       .  S
C1879      H1884   1.110       .  S
C1879      H1885   1.110       .  S
C1882      H1886   1.104       .  S
C1882      H1887   1.103       .  S
C1882      H1888   1.111       .  S
C1889      C1890   1.413       .  A
C1889      C1894   1.413       .  A
C1889      H1896   1.079       .  S
C1890      C1891   1.412       .  A
C1891      C1892   1.400       .  A
C1891      C1898   1.509       .  S
C1892      C1893   1.414       .  A
C1892      H1897   1.083       .  S
C1893      C1894   1.416       .  A
C1894      C1895   1.506       .  S
C1895      H1899   1.111       .  S
C1895      H1900   1.110       .  S
C1895      H1901   1.109       .  S
C1898      H1902   1.105       .  S
C1898      H1903   1.108       .  S
C1898      H1904   1.111       .  S
C1905      C1906   1.409       .  A
C1905      C1910   1.412       .  A
C1905      H1912   1.080       .  S
C1906      C1907   1.413       .  A
C1907      C1908   1.404       .  A
C1907      C1914   1.503       .  S
C1908      C1909   1.410       .  A
C1908      H1913   1.084       .  S
C1909      C1910   1.419       .  A
C1910      C1911   1.506       .  S
C1911      H1915   1.111       .  S
C1911      H1916   1.109       .  S
C1911      H1917   1.110       .  S
C1914      H1918   1.107       .  S
C1914      H1919   1.104       .  S
C1914      H1920   1.111       .  S
C1921      C1922   1.410       .  A
C1921      C1926   1.410       .  A
C1921      H1928   1.080       .  S
C1922      C1923   1.413       .  A
C1923      C1924   1.401       .  A
C1923      C1930   1.506       .  S
C1924      C1925   1.412       .  A
C1924      H1929   1.084       .  S
C1925      C1926   1.418       .  A
C1926      C1927   1.507       .  S
C1927      H1931   1.111       .  S
C1927      H1932   1.110       .  S
C1927      H1933   1.109       .  S
C1930      H1934   1.099       .  S
C1930      H1935   1.111       .  S
C1930      H1936   1.111       .  S
C1937      C1938   1.405       .  A
C1937      C1942   1.411       .  A
C1937      H1944   1.078       .  S
C1938      C1939   1.418       .  A
C1939      C1940   1.406       .  A
C1939      C1946   1.505       .  S
C1940      C1941   1.409       .  A
C1940      H1945   1.084       .  S
C1941      C1942   1.421       .  A
C1942      C1943   1.507       .  S
C1943      H1947   1.111       .  S
C1943      H1948   1.110       .  S
C1943      H1949   1.110       .  S
C1946      H1950   1.110       .  S
C1946      H1951   1.103       .  S
C1946      H1952   1.110       .  S
C1953      C1954   1.404       .  A
C1953      C1958   1.407       .  A
C1953      H1960   1.079       .  S
C1954      C1955   1.419       .  A
C1955      C1956   1.409       .  A
C1955      C1962   1.505       .  S
C1956      C1957   1.407       .  A
C1956      H1961   1.084       .  S
C1957      C1958   1.418       .  A
C1958      C1959   1.508       .  S
C1959      H1963   1.111       .  S
C1959      H1964   1.110       .  S
C1959      H1965   1.107       .  S
C1962      H1966   1.098       .  S
C1962      H1967   1.105       .  S
C1962      H1968   1.111       .  S
C1969      C1970   1.408       .  A
C1969      C1974   1.408       .  A
C1969      H1976   1.084       .  S
C1970      C1971   1.423       .  A
C1971      C1972   1.410       .  A
C1971      C1978   1.508       .  S
C1972      C1973   1.402       .  A
C1972      H1977   1.082       .  S
C1973      C1974   1.419       .  A
C1974      C1975   1.505       .  S
C1975      H1979   1.110       .  S
C1975      H1980   1.103       .  S
C1975      H1981   1.110       .  S
C1978      H1982   1.109       .  S
C1978      H1983   1.110       .  S
C1978      H1984   1.111       .  S
C1985      C1986   1.408       .  A
C1985      C1990   1.416       .  A
C1985      H1992   1.081       .  S
C1986      C1987   1.424       .  A
C1987      C1988   1.406       .  A
C1987      C1994   1.498       .  S
C1988      C1989   1.403       .  A
C1988      H1993   1.085       .  S
C1989      C1990   1.422       .  A
C1990      C1991   1.507       .  S
C1991      H1995   1.111       .  S
C1991      H1996   1.107       .  S
C1991      H1997   1.110       .  S
C1994      H1998   1.090       .  S
C1994      H1999   1.110       .  S
C1994      H2000   1.110       .  S
C2001      C2002   1.409       .  A
C2001      C2006   1.401       .  A
C2001      H2008   1.084       .  S
C2002      C2003   1.421       .  A
C2003      C2004   1.406       .  A
C2003      C2010   1.508       .  S
C2004      C2005   1.403       .  A
C2004      H2009   1.080       .  S
C2005      C2006   1.413       .  A
C2006      C2007   1.503       .  S
C2007      H2011   1.111       .  S
C2007      H2012   1.110       .  S
C2007      H2013   1.099       .  S
C2010      H2014   1.110       .  S
C2010      H2015   1.110       .  S
C2010      H2016   1.111       .  S
C2017      C2018   1.412       .  A
C2017      C2022   1.405       .  A
C2017      H2024   1.082       .  S
C2018      C2019   1.419       .  A
C2019      C2020   1.413       .  A
C2019      C2026   1.506       .  S
C2020      C2021   1.410       .  A
C2020      H2025   1.080       .  S
C2021      C2022   1.414       .  A
C2022      C2023   1.507       .  S
C2023      H2027   1.111       .  S
C2023      H2028   1.104       .  S
C2023      H2029   1.108       .  S
C2026      H2030   1.110       .  S
C2026      H2031   1.109       .  S
C2026      H2032   1.111       .  S
C2033      C2034   1.407       .  A
C2033      C2038   1.410       .  A
C2033      H2040   1.084       .  S
C2034      C2035   1.421       .  A
C2035      C2036   1.408       .  A
C2035      C2042   1.510       .  S
C2036      C2037   1.406       .  A
C2036      H2041   1.077       .  S
C2037      C2038   1.418       .  A
C2038      C2039   1.502       .  S
C2039      H2043   1.111       .  S
C2039      H2044   1.106       .  S
C2039      H2045   1.103       .  S
C2042      H2046   1.108       .  S
C2042      H2047   1.110       .  S
C2042      H2048   1.111       .  S
C2049      C2050   1.407       .  A
C2049      C2054   1.409       .  A
C2049      H2056   1.080       .  S
C2050      C2051   1.409       .  A
C2051      C2052   1.400       .  A
C2051      C2058   1.508       .  S
C2052      C2053   1.414       .  A
C2052      H2057   1.083       .  S
C2053      C2054   1.418       .  A
C2054      C2055   1.507       .  S
C2055      H2059   1.111       .  S
C2055      H2060   1.110       .  S
C2055      H2061   1.109       .  S
C2058      H2062   1.105       .  S
C2058      H2063   1.108       .  S
C2058      H2064   1.111       .  S
C2065      C2066   1.408       .  A
C2065      C2070   1.411       .  A
C2065      H2072   1.081       .  S
C2066      C2067   1.412       .  A
C2067      C2068   1.401       .  A
C2067      C2074   1.506       .  S
C2068      C2069   1.411       .  A
C2068      H2073   1.084       .  S
C2069      C2070   1.420       .  A
C2070      C2071   1.507       .  S
C2071      H2075   1.111       .  S
C2071      H2076   1.110       .  S
C2071      H2077   1.109       .  S
C2074      H2078   1.111       .  S
C2074      H2079   1.103       .  S
C2074      H2080   1.109       .  S
C2081      C2082   1.407       .  A
C2081      C2086   1.415       .  A
C2081      H2088   1.083       .  S
C2082      C2083   1.408       .  A
C2083      C2084   1.402       .  A
C2083      C2090   1.505       .  S
C2084      C2085   1.414       .  A
C2084      H2089   1.083       .  S
C2085      C2086   1.422       .  A
C2086      C2087   1.506       .  S
C2087      H2091   1.111       .  S
C2087      H2092   1.110       .  S
C2087      H2093   1.109       .  S
C2090      H2094   1.108       .  S
C2090      H2095   1.108       .  S
C2090      H2096   1.111       .  S
C2097      C2098   1.411       .  A
C2097      C2102   1.412       .  A
C2097      H2104   1.082       .  S
C2098      C2099   1.417       .  A
C2099      C2100   1.403       .  A
C2099      C2106   1.505       .  S
C2100      C2101   1.406       .  A
C2100      H2105   1.085       .  S
C2101      C2102   1.415       .  A
C2102      C2103   1.506       .  S
C2103      H2107   1.111       .  S
C2103      H2108   1.110       .  S
C2103      H2109   1.109       .  S
C2106      H2110   1.111       .  S
C2106      H2111   1.100       .  S
C2106      H2112   1.110       .  S
C2113      C2114   1.397       .  A
C2113      C2118   1.403       .  A
C2113      H2120   1.084       .  S
C2114      C2115   1.419       .  A
C2115      C2116   1.411       .  A
C2115      C2122   1.504       .  S
C2116      C2117   1.409       .  A
C2116      H2121   1.084       .  S
C2117      C2118   1.431       .  A
C2118      C2119   1.512       .  S
C2119      H2123   1.111       .  S
C2119      H2124   1.110       .  S
C2119      H2125   1.110       .  S
C2122      H2126   1.103       .  S
C2122      H2127   1.110       .  S
C2122      H2128   1.110       .  S
C2129      C2130   1.411       .  A
C2129      C2134   1.414       .  A
C2129      H2136   1.082       .  S
C2130      C2131   1.413       .  A
C2131      C2132   1.402       .  A
C2131      C2138   1.509       .  S
C2132      C2133   1.413       .  A
C2132      H2137   1.083       .  S
C2133      C2134   1.420       .  A
C2134      C2135   1.506       .  S
C2135      H2139   1.111       .  S
C2135      H2140   1.109       .  S
C2135      H2141   1.110       .  S
C2138      H2142   1.106       .  S
C2138      H2143   1.104       .  S
C2138      H2144   1.111       .  S
C2145      C2146   1.408       .  A
C2145      C2150   1.407       .  A
C2145      H2152   1.084       .  S
C2146      C2147   1.421       .  A
C2147      C2148   1.408       .  A
C2147      C2154   1.508       .  S
C2148      C2149   1.403       .  A
C2148      H2153   1.079       .  S
C2149      C2150   1.417       .  A
C2150      C2151   1.503       .  S
C2151      H2155   1.110       .  S
C2151      H2156   1.110       .  S
C2151      H2157   1.101       .  S
C2154      H2158   1.110       .  S
C2154      H2159   1.110       .  S
C2154      H2160   1.111       .  S
C2161      C2162   1.414       .  A
C2161      C2166   1.400       .  A
C2161      H2168   1.083       .  S
C2162      C2163   1.419       .  A
C2163      C2164   1.413       .  A
C2163      C2170   1.506       .  S
C2164      C2165   1.410       .  A
C2164      H2169   1.082       .  S
C2165      C2166   1.412       .  A
C2166      C2167   1.510       .  S
C2167      H2171   1.111       .  S
C2167      H2172   1.109       .  S
C2167      H2173   1.108       .  S
C2170      H2174   1.109       .  S
C2170      H2175   1.110       .  S
C2170      H2176   1.111       .  S
C2177      C2178   1.405       .  A
C2177      C2182   1.409       .  A
C2177      H2184   1.079       .  S
C2178      C2179   1.418       .  A
C2179      C2180   1.410       .  A
C2179      C2186   1.503       .  S
C2180      C2181   1.408       .  A
C2180      H2185   1.084       .  S
C2181      C2182   1.422       .  A
C2182      C2183   1.508       .  S
C2183      H2187   1.111       .  S
C2183      H2188   1.110       .  S
C2183      H2189   1.109       .  S
C2186      H2190   1.101       .  S
C2186      H2191   1.104       .  S
C2186      H2192   1.111       .  S
C2193      C2194   1.408       .  A
C2193      C2198   1.413       .  A
C2193      H2200   1.084       .  S
C2194      C2195   1.422       .  A
C2195      C2196   1.406       .  A
C2195      C2202   1.510       .  S
C2196      C2197   1.403       .  A
C2196      H2201   1.077       .  S
C2197      C2198   1.418       .  A
C2198      C2199   1.505       .  S
C2199      H2203   1.111       .  S
C2199      H2204   1.106       .  S
C2199      H2205   1.104       .  S
C2202      H2206   1.109       .  S
C2202      H2207   1.110       .  S
C2202      H2208   1.111       .  S
C2209      C2210   1.401       .  A
C2209      C2214   1.404       .  A
C2209      H2216   1.077       .  S
C2210      C2211   1.418       .  A
C2211      C2212   1.409       .  A
C2211      C2218   1.505       .  S
C2212      C2213   1.409       .  A
C2212      H2217   1.084       .  S
C2213      C2214   1.421       .  A
C2214      C2215   1.511       .  S
C2215      H2219   1.111       .  S
C2215      H2220   1.110       .  S
C2215      H2221   1.107       .  S
C2218      H2222   1.110       .  S
C2218      H2223   1.104       .  S
C2218      H2224   1.110       .  S
C2225      C2226   1.404       .  A
C2225      C2230   1.409       .  A
C2225      H2232   1.075       .  S
C2226      C2227   1.424       .  A
C2227      C2228   1.405       .  A
C2227      C2234   1.497       .  S
C2228      C2229   1.402       .  A
C2228      H2233   1.084       .  S
C2229      C2230   1.422       .  A
C2230      C2231   1.509       .  S
C2231      H2235   1.111       .  S
C2231      H2236   1.110       .  S
C2231      H2237   1.110       .  S
C2234      H2238   1.110       .  S
C2234      H2239   1.089       .  S
C2234      H2240   1.110       .  S
C2241      C2242   1.406       .  A
C2241      C2246   1.411       .  A
C2241      H2248   1.084       .  S
C2242      C2243   1.429       .  A
C2243      C2244   1.404       .  A
C2243      C2250   1.511       .  S
C2244      C2245   1.397       .  A
C2244      H2249   1.080       .  S
C2245      C2246   1.421       .  A
C2246      C2247   1.505       .  S
C2247      H2251   1.111       .  S
C2247      H2252   1.103       .  S
C2247      H2253   1.101       .  S
C2250      H2254   1.110       .  S
C2250      H2255   1.110       .  S
C2250      H2256   1.111       .  S
C2257      C2258   1.403       .  A
C2257      C2262   1.400   1_556  A
C2257      H2264   1.084       .  S
C2258      C2259   1.412       .  A
C2259      C2260   1.397   1_556  A
C2259      C2266   1.501       .  S
C2260      C2261   1.398       .  A
C2260      H2265   1.085       .  S
C2261      C2262   1.411       .  A
C2262      C2263   1.507       .  S
C2263      H2267   1.111       .  S
C2263      H2268   1.110       .  S
C2263      H2269   1.110       .  S
C2266      H2270   1.109       .  S
C2266      H2271   1.110       .  S
C2266      H2272   1.111       .  S
C2273      C2274   1.404       .  A
C2273      C2278   1.408       .  A
C2273      H2280   1.079       .  S
C2274      C2275   1.417       .  A
C2275      C2276   1.406       .  A
C2275      C2282   1.502       .  S
C2276      C2277   1.408       .  A
C2276      H2281   1.084       .  S
C2277      C2278   1.421       .  A
C2278      C2279   1.509       .  S
C2279      H2283   1.111       .  S
C2279      H2284   1.108       .  S
C2279      H2285   1.110       .  S
C2282      H2286   1.110       .  S
C2282      H2287   1.098       .  S
C2282      H2288   1.111       .  S
C2289      C2290   1.403       .  A
C2289      C2294   1.397   1_655  A
C2289      H2296   1.085       .  S
C2290      C2291   1.411       .  A
C2291      C2292   1.400   1_655  A
C2291      C2298   1.507       .  S
C2292      C2293   1.402       .  A
C2292      H2297   1.084       .  S
C2293      C2294   1.409       .  A
C2294      C2295   1.508       .  S
C2295      H2299   1.111       .  S
C2295      H2300   1.111       .  S
C2295      H2301   1.109       .  S
C2298      H2302   1.110       .  S
C2298      H2303   1.110       .  S
C2298      H2304   1.111       .  S
C2305      C2306   1.410       .  A
C2305      C2310   1.391   1_655  A
C2305      H2312   1.083       .  S
C2306      C2307   1.414       .  A
C2307      C2308   1.399   1_655  A
C2307      C2314   1.506       .  S
C2308      C2309   1.402       .  A
C2308      H2313   1.085       .  S
C2309      C2310   1.404       .  A
C2310      C2311   1.509       .  S
C2311      H2315   1.111       .  S
C2311      H2316   1.110       .  S
C2311      H2317   1.109       .  S
C2314      H2318   1.111       .  S
C2314      H2319   1.108       .  S
C2314      H2320   1.111       .  S
C2321      C2322   1.406       .  A
C2321      C2326   1.400   1_556  A
C2321      H2328   1.084       .  S
C2322      C2323   1.427       .  A
C2323      C2324   1.398   1_556  A
C2323      C2330   1.510       .  S
C2324      C2325   1.395       .  A
C2324      H2329   1.084       .  S
C2325      C2326   1.413       .  A
C2326      C2327   1.510       .  S
C2327      H2331   1.111       .  S
C2327      H2332   1.108       .  S
C2327      H2333   1.111       .  S
C2330      H2334   1.110       .  S
C2330      H2335   1.108       .  S
C2330      H2336   1.111       .  S
C2337      C2338   1.397       .  A
C2337      C2342   1.392   1_565  A
C2337      H2344   1.085       .  S
C2338      C2339   1.414       .  A
C2339      C2340   1.397   1_565  A
C2339      C2346   1.509       .  S
C2340      C2341   1.399       .  A
C2340      H2345   1.085       .  S
C2341      C2342   1.411       .  A
C2342      C2343   1.504       .  S
C2343      H2347   1.111       .  S
C2343      H2348   1.109       .  S
C2343      H2349   1.105       .  S
C2346      H2350   1.111       .  S
C2346      H2351   1.108       .  S
C2346      H2352   1.111       .  S
C2353      C2354   1.407       .  A
C2353      C2358   1.411       .  A
C2353      H2360   1.084       .  S
C2354      C2355   1.421       .  A
C2355      C2356   1.407       .  A
C2355      C2362   1.509       .  S
C2356      C2357   1.403       .  A
C2356      H2361   1.080       .  S
C2357      C2358   1.420       .  A
C2358      C2359   1.505       .  S
C2359      H2363   1.111       .  S
C2359      H2364   1.097       .  S
C2359      H2365   1.105       .  S
C2362      H2366   1.110       .  S
C2362      H2367   1.109       .  S
C2362      H2368   1.111       .  S
C2369      C2370   1.400       .  A
C2369      C2374   1.401   1_455  A
C2369      H2376   1.084       .  S
C2370      C2371   1.414       .  A
C2371      C2372   1.399   1_455  A
C2371      C2378   1.510       .  S
C2372      C2373   1.404       .  A
C2372      H2377   1.084       .  S
C2373      C2374   1.418       .  A
C2374      C2375   1.508       .  S
C2375      H2379   1.111       .  S
C2375      H2380   1.111       .  S
C2375      H2381   1.109       .  S
C2378      H2382   1.109       .  S
C2378      H2383   1.110       .  S
C2378      H2384   1.111       .  S
C2385      C2386   1.399       .  A
C2385      C2390   1.396   1_545  A
C2385      H2392   1.085       .  S
C2386      C2387   1.414       .  A
C2387      C2388   1.398   1_545  A
C2387      C2394   1.507       .  S
C2388      C2389   1.400       .  A
C2388      H2393   1.084       .  S
C2389      C2390   1.415       .  A
C2390      C2391   1.510       .  S
C2391      H2395   1.111       .  S
C2391      H2396   1.108       .  S
C2391      H2397   1.110       .  S
C2394      H2398   1.109       .  S
C2394      H2399   1.110       .  S
C2394      H2400   1.111       .  S
C2401      C2402   1.400       .  A
C2401      C2406   1.398   1_565  A
C2401      H2408   1.085       .  S
C2402      C2403   1.412       .  A
C2403      C2404   1.398   1_565  A
C2403      C2410   1.506       .  S
C2404      C2405   1.403       .  A
C2404      H2409   1.084       .  S
C2405      C2406   1.418       .  A
C2406      C2407   1.510       .  S
C2407      H2411   1.111       .  S
C2407      H2412   1.109       .  S
C2407      H2413   1.111       .  S
C2410      H2414   1.107       .  S
C2410      H2415   1.110       .  S
C2410      H2416   1.111       .  S
C2417      C2418   1.391       .  A
C2417      C2422   1.393   1_556  A
C2417      H2424   1.085       .  S
C2418      C2419   1.409       .  A
C2419      C2420   1.401   1_556  A
C2419      C2426   1.508       .  S
C2420      C2421   1.407       .  A
C2420      H2425   1.084       .  S
C2421      C2422   1.430       .  A
C2422      C2423   1.514       .  S
C2423      H2427   1.111       .  S
C2423      H2428   1.110       .  S
C2423      H2429   1.110       .  S
C2426      H2430   1.111       .  S
C2426      H2431   1.109       .  S
C2426      H2432   1.111       .  S
C2433      C2434   1.401       .  A
C2433      C2438   1.397   1_655  A
C2433      H2440   1.085       .  S
C2434      C2435   1.413       .  A
C2435      C2436   1.399   1_655  A
C2435      C2442   1.508       .  S
C2436      C2437   1.401       .  A
C2436      H2441   1.084       .  S
C2437      C2438   1.413       .  A
C2438      C2439   1.509       .  S
C2439      H2443   1.111       .  S
C2439      H2444   1.109       .  S
C2439      H2445   1.110       .  S
C2442      H2446   1.111       .  S
C2442      H2447   1.110       .  S
C2442      H2448   1.111       .  S
C2449      C2450   1.400       .  A
C2449      C2454   1.398   1_565  A
C2449      H2456   1.085       .  S
C2450      C2451   1.407       .  A
C2451      C2452   1.395   1_565  A
C2451      C2458   1.509       .  S
C2452      C2453   1.413       .  A
C2452      H2457   1.083       .  S
C2453      C2454   1.417       .  A
C2454      C2455   1.502       .  S
C2455      H2459   1.111       .  S
C2455      H2460   1.104       .  S
C2455      H2461   1.110       .  S
C2458      H2462   1.110       .  S
C2458      H2463   1.111       .  S
C2458      H2464   1.111       .  S
C2465      C2466   1.411       .  A
C2465      C2470   1.396   1_556  A
C2465      H2472   1.084       .  S
C2466      C2467   1.417       .  A
C2467      C2468   1.400   1_556  A
C2467      C2474   1.509       .  S
C2468      C2469   1.404       .  A
C2468      H2473   1.085       .  S
C2469      C2470   1.408       .  A
C2470      C2471   1.509       .  S
C2471      H2475   1.111       .  S
C2471      H2476   1.110       .  S
C2471      H2477   1.111       .  S
C2474      H2478   1.110       .  S
C2474      H2479   1.110       .  S
C2474      H2480   1.111       .  S
C2481      C2482   1.409       .  A
C2481      C2486   1.417       .  A
C2481      H2488   1.083       .  S
C2482      C2483   1.414       .  A
C2483      C2484   1.400       .  A
C2483      C2490   1.504       .  S
C2484      C2485   1.410       .  A
C2484      H2489   1.084       .  S
C2485      C2486   1.422       .  A
C2486      C2487   1.506       .  S
C2487      H2491   1.111       .  S
C2487      H2492   1.110       .  S
C2487      H2493   1.110       .  S
C2490      H2494   1.111       .  S
C2490      H2495   1.094       .  S
C2490      H2496   1.111       .  S
C2497      C2498   1.405       .  A
C2497      C2502   1.409       .  A
C2497      H2504   1.082       .  S
C2498      C2499   1.423       .  A
C2499      C2500   1.407       .  A
C2499      C2506   1.504       .  S
C2500      C2501   1.404       .  A
C2500      H2505   1.085       .  S
C2501      C2502   1.421       .  A
C2502      C2503   1.508       .  S
C2503      H2507   1.111       .  S
C2503      H2508   1.107       .  S
C2503      H2509   1.110       .  S
C2506      H2510   1.098       .  S
C2506      H2511   1.111       .  S
C2506      H2512   1.110       .  S
C2513      C2514   1.408       .  A
C2513      C2518   1.411       .  A
C2513      H2520   1.080       .  S
C2514      C2515   1.413       .  A
C2515      C2516   1.403       .  A
C2515      C2522   1.506       .  S
C2516      C2517   1.412       .  A
C2516      H2521   1.083       .  S
C2517      C2518   1.420       .  A
C2518      C2519   1.507       .  S
C2519      H2523   1.111       .  S
C2519      H2524   1.110       .  S
C2519      H2525   1.109       .  S
C2522      H2526   1.103   1_455  S
C2522      H2527   1.110       .  S
C2522      H2528   1.111       .  S
C2529      C2530   1.411       .  A
C2529      C2534   1.410       .  A
C2529      H2536   1.082       .  S
C2530      C2531   1.420       .  A
C2531      C2532   1.403       .  A
C2531      C2538   1.505       .  S
C2532      C2533   1.404       .  A
C2532      H2537   1.085       .  S
C2533      C2534   1.414       .  A
C2534      C2535   1.507       .  S
C2535      H2539   1.111       .  S
C2535      H2540   1.110       .  S
C2535      H2541   1.109       .  S
C2538      H2542   1.098       .  S
C2538      H2543   1.110       .  S
C2538      H2544   1.111       .  S
C2545      C2546   1.404       .  A
C2545      C2550   1.409       .  A
C2545      H2552   1.080       .  S
C2546      C2547   1.416       .  A
C2547      C2548   1.406       .  A
C2547      C2554   1.504       .  S
C2548      C2549   1.410       .  A
C2548      H2553   1.084       .  S
C2549      C2550   1.422       .  A
C2550      C2551   1.508       .  S
C2551      H2555   1.111       .  S
C2551      H2556   1.110       .  S
C2551      H2557   1.110       .  S
C2554      H2558   1.110       .  S
C2554      H2559   1.103       .  S
C2554      H2560   1.110       .  S
C2561      C2562   1.403       .  A
C2561      C2566   1.409       .  A
C2561      H2568   1.083       .  S
C2562      C2563   1.416       .  A
C2563      C2564   1.412       .  A
C2563      C2570   1.505       .  S
C2564      C2565   1.412       .  A
C2564      H2569   1.084       .  S
C2565      C2566   1.424       .  A
C2566      C2567   1.510       .  S
C2567      H2571   1.111       .  S
C2567      H2572   1.110       .  S
C2567      H2573   1.106       .  S
C2570      H2574   1.110       .  S
C2570      H2575   1.105       .  S
C2570      H2576   1.110       .  S
C2577      C2578   1.413       .  A
C2577      C2582   1.419       .  A
C2577      H2584   1.083       .  S
C2578      C2579   1.417       .  A
C2579      C2580   1.402       .  A
C2579      C2586   1.506       .  S
C2580      C2581   1.409       .  A
C2580      H2585   1.083       .  S
C2581      C2582   1.421       .  A
C2582      C2583   1.506       .  S
C2583      H2587   1.111       .  S
C2583      H2588   1.109       .  S
C2583      H2589   1.110       .  S
C2586      H2590   1.097       .  S
C2586      H2591   1.111       .  S
C2586      H2592   1.111       .  S
C2593      C2594   1.410       .  A
C2593      C2598   1.408       .  A
C2593      H2600   1.080       .  S
C2594      C2595   1.417       .  A
C2595      C2596   1.404       .  A
C2595      C2602   1.505       .  S
C2596      C2597   1.406       .  A
C2596      H2601   1.085       .  S
C2597      C2598   1.415       .  A
C2598      C2599   1.507       .  S
C2599      H2603   1.111       .  S
C2599      H2604   1.109       .  S
C2599      H2605   1.110       .  S
C2602      H2606   1.102   1_565  S
C2602      H2607   1.111       .  S
C2602      H2608   1.110       .  S
C2609      C2610   1.402       .  A
C2609      C2614   1.409       .  A
C2609      H2616   1.081       .  S
C2610      C2611   1.421       .  A
C2611      C2612   1.409       .  A
C2611      C2618   1.503       .  S
C2612      C2613   1.407       .  A
C2612      H2617   1.084       .  S
C2613      C2614   1.427       .  A
C2614      C2615   1.510       .  S
C2615      H2619   1.111       .  S
C2615      H2620   1.110       .  S
C2615      H2621   1.109       .  S
C2618      H2622   1.111       .  S
C2618      H2623   1.102       .  S
C2618      H2624   1.110       .  S
C2625      C2626   1.408       .  A
C2625      C2630   1.408       .  A
C2625      H2632   1.084       .  S
C2626      C2627   1.422       .  A
C2627      C2628   1.416       .  A
C2627      C2634   1.506       .  S
C2628      C2629   1.409       .  A
C2628      H2633   1.082       .  S
C2629      C2630   1.417       .  A
C2630      C2631   1.499       .  S
C2631      H2635   1.111       .  S
C2631      H2636   1.106       .  S
C2631      H2637   1.102       .  S
C2634      H2638   1.110       .  S
C2634      H2639   1.110       .  S
C2634      H2640   1.111       .  S
C2641      C2642   1.412       .  A
C2641      C2646   1.411       .  A
C2641      H2648   1.083       .  S
C2642      C2643   1.422       .  A
C2643      C2644   1.411       .  A
C2643      C2650   1.508       .  S
C2644      C2645   1.405       .  A
C2644      H2649   1.077       .  S
C2645      C2646   1.415       .  A
C2646      C2647   1.505       .  S
C2647      H2651   1.111       .  S
C2647      H2652   1.107       .  S
C2647      H2653   1.107   1_554  S
C2650      H2654   1.110       .  S
C2650      H2655   1.110       .  S
C2650      H2656   1.111       .  S
C2657      C2658   1.408       .  A
C2657      C2662   1.410       .  A
C2657      H2664   1.081       .  S
C2658      C2659   1.417       .  A
C2659      C2660   1.408       .  A
C2659      C2666   1.505       .  S
C2660      C2661   1.406       .  A
C2660      H2665   1.084       .  S
C2661      C2662   1.417       .  A
C2662      C2663   1.507       .  S
C2663      H2667   1.111       .  S
C2663      H2668   1.110       .  S
C2663      H2669   1.108       .  S
C2666      H2670   1.104       .  S
C2666      H2671   1.108       .  S
C2666      H2672   1.111       .  S
C2673      C2674   1.410       .  A
C2673      C2678   1.414       .  A
C2673      H2680   1.080       .  S
C2674      C2675   1.412       .  A
C2675      C2676   1.404       .  A
C2675      C2682   1.506       .  S
C2676      C2677   1.413       .  A
C2676      H2681   1.083       .  S
C2677      C2678   1.420       .  A
C2678      C2679   1.506       .  S
C2679      H2683   1.111       .  S
C2679      H2684   1.110       .  S
C2679      H2685   1.109       .  S
C2682      H2686   1.105       .  S
C2682      H2687   1.108       .  S
C2682      H2688   1.111       .  S
C2689      C2690   1.405       .  A
C2689      C2694   1.409       .  A
C2689      H2696   1.076       .  S
C2690      C2691   1.414       .  A
C2691      C2692   1.410       .  A
C2691      C2698   1.505       .  S
C2692      C2693   1.412       .  A
C2692      H2697   1.084       .  S
C2693      C2694   1.421       .  A
C2694      C2695   1.508       .  S
C2695      H2699   1.111       .  S
C2695      H2700   1.110       .  S
C2695      H2701   1.110       .  S
C2698      H2702   1.107       .  S
C2698      H2703   1.107       .  S
C2698      H2704   1.111       .  S
C2705      C2706   1.406       .  A
C2705      C2710   1.411       .  A
C2705      H2712   1.082       .  S
C2706      C2707   1.417       .  A
C2707      C2708   1.409       .  A
C2707      C2714   1.499       .  S
C2708      C2709   1.407       .  A
C2708      H2713   1.083       .  S
C2709      C2710   1.424       .  A
C2710      C2711   1.508       .  S
C2711      H2715   1.111       .  S
C2711      H2716   1.108       .  S
C2711      H2717   1.110       .  S
C2714      H2718   1.106       .  S
C2714      H2719   1.104       .  S
C2714      H2720   1.111       .  S
C2721      C2722   1.401       .  A
C2721      C2726   1.408       .  A
C2721      H2728   1.081       .  S
C2722      C2723   1.420       .  A
C2723      C2724   1.408       .  A
C2723      C2730   1.503       .  S
C2724      C2725   1.408       .  A
C2724      H2729   1.084       .  S
C2725      C2726   1.428       .  A
C2726      C2727   1.510       .  S
C2727      H2731   1.111       .  S
C2727      H2732   1.110       .  S
C2727      H2733   1.110       .  S
C2730      H2734   1.111       .  S
C2730      H2735   1.103       .  S
C2730      H2736   1.110       .  S
C2737      C2738   1.398       .  A
C2737      C2742   1.401       .  A
C2737      H2744   1.078       .  S
C2738      C2739   1.419       .  A
C2739      C2740   1.413       .  A
C2739      C2746   1.504       .  S
C2740      C2741   1.410       .  A
C2740      H2745   1.084       .  S
C2741      C2742   1.429       .  A
C2742      C2743   1.512       .  S
C2743      H2747   1.111       .  S
C2743      H2748   1.109       .  S
C2743      H2749   1.110       .  S
C2746      H2750   1.104       .  S
C2746      H2751   1.110       .  S
C2746      H2752   1.110       .  S
C2753      C2754   1.407       .  A
C2753      C2758   1.409       .  A
C2753      H2760   1.084       .  S
C2754      C2755   1.426       .  A
C2755      C2756   1.405       .  A
C2755      C2762   1.510       .  S
C2756      C2757   1.399       .  A
C2756      H2761   1.084       .  S
C2757      C2758   1.418       .  A
C2758      C2759   1.504       .  S
C2759      H2763   1.110       .  S
C2759      H2764   1.111       .  S
C2759      H2765   1.104       .  S
C2762      H2766   1.109       .  S
C2762      H2767   1.111       .  S
C2762      H2768   1.111       .  S
C2769      C2770   1.404       .  A
C2769      C2774   1.402       .  A
C2769      H2776   1.084       .  S
C2770      C2771   1.415       .  A
C2771      C2772   1.412       .  A
C2771      C2778   1.506       .  S
C2772      C2773   1.410       .  A
C2772      H2777   1.083       .  S
C2773      C2774   1.418       .  A
C2774      C2775   1.509       .  S
C2775      H2779   1.111       .  S
C2775      H2780   1.107       .  S
C2775      H2781   1.108   1_554  S
C2778      H2782   1.110       .  S
C2778      H2783   1.109       .  S
C2778      H2784   1.111       .  S
C2785      C2786   1.409       .  A
C2785      C2790   1.410       .  A
C2785      H2792   1.082       .  S
C2786      C2787   1.412       .  A
C2787      C2788   1.400       .  A
C2787      C2794   1.510       .  S
C2788      C2789   1.411       .  A
C2788      H2793   1.083       .  S
C2789      C2790   1.419       .  A
C2790      C2791   1.507       .  S
C2791      H2795   1.111       .  S
C2791      H2796   1.110       .  S
C2791      H2797   1.109       .  S
C2794      H2798   1.106       .  S
C2794      H2799   1.108   1_556  S
C2794      H2800   1.111       .  S
C2801      C2802   1.400       .  A
C2801      C2806   1.404       .  A
C2801      H2808   1.079       .  S
C2802      C2803   1.419       .  A
C2803      C2804   1.413       .  A
C2803      C2810   1.505       .  S
C2804      C2805   1.411       .  A
C2804      H2809   1.084       .  S
C2805      C2806   1.423       .  A
C2806      C2807   1.513       .  S
C2807      H2811   1.111       .  S
C2807      H2812   1.106       .  S
C2807      H2813   1.110       .  S
C2810      H2814   1.110       .  S
C2810      H2815   1.106       .  S
C2810      H2816   1.110       .  S
C2817      C2818   1.407       .  A
C2817      C2822   1.413       .  A
C2817      H2824   1.080       .  S
C2818      C2819   1.415       .  A
C2819      C2820   1.410       .  A
C2819      C2826   1.506       .  S
C2820      C2821   1.411       .  A
C2820      H2825   1.084       .  S
C2821      C2822   1.421       .  A
C2822      C2823   1.507       .  S
C2823      H2827   1.111       .  S
C2823      H2828   1.109       .  S
C2823      H2829   1.110       .  S
C2826      H2830   1.107       .  S
C2826      H2831   1.102       .  S
C2826      H2832   1.111       .  S
C2833      C2834   1.398       .  A
C2833      C2838   1.403       .  A
C2833      H2840   1.084       .  S
C2834      C2835   1.424       .  A
C2835      C2836   1.410       .  A
C2835      C2842   1.504       .  S
C2836      C2837   1.406       .  A
C2836      H2841   1.084       .  S
C2837      C2838   1.430       .  A
C2838      C2839   1.511       .  S
C2839      H2843   1.111       .  S
C2839      H2844   1.110       .  S
C2839      H2845   1.110       .  S
C2842      H2846   1.111       .  S
C2842      H2847   1.104       .  S
C2842      H2848   1.110       .  S
C2849      C2850   1.411       .  A
C2849      C2854   1.413       .  A
C2849      H2856   1.083       .  S
C2850      C2851   1.420       .  A
C2851      C2852   1.400       .  A
C2851      C2858   1.502       .  S
C2852      C2853   1.403       .  A
C2852      H2857   1.085       .  S
C2853      C2854   1.416       .  A
C2854      C2855   1.506       .  S
C2855      H2859   1.111       .  S
C2855      H2860   1.110       .  S
C2855      H2861   1.109       .  S
C2858      H2862   1.111       .  S
C2858      H2863   1.090       .  S
C2858      H2864   1.111       .  S
C2865      C2866   1.397       .  A
C2865      C2870   1.402       .  A
C2865      H2872   1.083       .  S
C2866      C2867   1.416       .  A
C2867      C2868   1.410       .  A
C2867      C2874   1.506       .  S
C2868      C2869   1.409       .  A
C2868      H2873   1.083       .  S
C2869      C2870   1.429       .  A
C2870      C2871   1.511       .  S
C2871      H2875   1.111       .  S
C2871      H2876   1.110       .  S
C2871      H2877   1.110       .  S
C2874      H2878   1.106       .  S
C2874      H2879   1.103       .  S
C2874      H2880   1.111       .  S
C2881      C2882   1.401       .  A
C2881      C2886   1.405       .  A
C2881      H2888   1.080       .  S
C2882      C2883   1.418       .  A
C2883      C2884   1.409       .  A
C2883      C2890   1.506       .  S
C2884      C2885   1.409       .  A
C2884      H2889   1.084       .  S
C2885      C2886   1.423       .  A
C2886      C2887   1.509       .  S
C2887      H2891   1.111       .  S
C2887      H2892   1.109       .  S
C2887      H2893   1.110       .  S
C2890      H2894   1.106       .  S
C2890      H2895   1.110       .  S
C2890      H2896   1.110       .  S
C2897      C2898   1.409       .  A
C2897      C2902   1.397       .  A
C2897      H2904   1.082       .  S
C2898      C2899   1.415       .  A
C2899      C2900   1.416       .  A
C2899      C2906   1.505       .  S
C2900      C2901   1.413       .  A
C2900      H2905   1.082       .  S
C2901      C2902   1.414       .  A
C2902      C2903   1.508       .  S
C2903      H2907   1.110       .  S
C2903      H2908   1.106       .  S
C2903      H2909   1.108   1_455  S
C2906      H2910   1.110       .  S
C2906      H2911   1.109       .  S
C2906      H2912   1.111       .  S
C2913      C2914   1.400       .  A
C2913      C2918   1.403       .  A
C2913      H2920   1.084       .  S
C2914      C2915   1.420       .  A
C2915      C2916   1.406       .  A
C2915      C2922   1.505       .  S
C2916      C2917   1.405       .  A
C2916      H2921   1.085       .  S
C2917      C2918   1.422       .  A
C2918      C2919   1.509       .  S
C2919      H2923   1.111       .  S
C2919      H2924   1.108       .  S
C2919      H2925   1.110       .  S
C2922      H2926   1.105       .  S
C2922      H2927   1.110       .  S
C2922      H2928   1.110       .  S
C2929      C2930   1.407       .  A
C2929      C2934   1.411       .  A
C2929      H2936   1.084       .  S
C2930      C2931   1.422       .  A
C2931      C2932   1.409       .  A
C2931      C2938   1.508       .  S
C2932      C2933   1.403       .  A
C2932      H2937   1.083       .  S
C2933      C2934   1.418       .  A
C2934      C2935   1.505       .  S
C2935      H2939   1.111       .  S
C2935      H2940   1.103       .  S
C2935      H2941   1.104       .  S
C2938      H2942   1.110       .  S
C2938      H2943   1.108       .  S
C2938      H2944   1.111       .  S
C2945      C2946   1.402       .  A
C2945      C2950   1.407       .  A
C2945      H2952   1.079       .  S
C2946      C2947   1.418       .  A
C2947      C2948   1.412       .  A
C2947      C2954   1.506       .  S
C2948      C2949   1.410       .  A
C2948      H2953   1.084       .  S
C2949      C2950   1.422       .  A
C2950      C2951   1.509       .  S
C2951      H2955   1.111       .  S
C2951      H2956   1.110       .  S
C2951      H2957   1.108       .  S
C2954      H2958   1.110       .  S
C2954      H2959   1.107       .  S
C2954      H2960   1.110       .  S
C2961      C2962   1.412       .  A
C2961      C2966   1.417       .  A
C2961      H2968   1.082       .  S
C2962      C2963   1.416       .  A
C2963      C2964   1.403       .  A
C2963      C2970   1.507       .  S
C2964      C2965   1.410       .  A
C2964      H2969   1.083       .  S
C2965      C2966   1.419       .  A
C2966      C2967   1.505       .  S
C2967      H2971   1.111       .  S
C2967      H2972   1.109       .  S
C2967      H2973   1.110       .  S
C2970      H2974   1.107   1_545  S
C2970      H2975   1.105       .  S
C2970      H2976   1.110       .  S
C2977      C2978   1.403       .  A
C2977      C2982   1.410       .  A
C2977      H2984   1.084       .  S
C2978      C2979   1.421       .  A
C2979      C2980   1.409       .  A
C2979      C2986   1.505       .  S
C2980      C2981   1.407       .  A
C2980      H2985   1.084       .  S
C2981      C2982   1.423       .  A
C2982      C2983   1.508       .  S
C2983      H2987   1.111       .  S
C2983      H2988   1.110       .  S
C2983      H2989   1.108       .  S
C2986      H2990   1.110       .  S
C2986      H2991   1.104       .  S
C2986      H2992   1.111       .  S
C2993      C2994   1.409       .  A
C2993      C2998   1.408       .  A
C2993      H3000   1.084       .  S
C2994      C2995   1.420       .  A
C2995      C2996   1.406       .  A
C2995      C3002   1.509       .  S
C2996      C2997   1.402       .  A
C2996      H3001   1.079       .  S
C2997      C2998   1.416       .  A
C2998      C2999   1.506       .  S
C2999      H3003   1.110       .  S
C2999      H3004   1.110       .  S
C2999      H3005   1.107       .  S
C3002      H3006   1.110       .  S
C3002      H3007   1.107       .  S
C3002      H3008   1.111       .  S
C3009      C3010   1.409       .  A
C3009      C3014   1.410       .  A
C3009      H3016   1.084       .  S
C3010      C3011   1.421       .  A
C3011      C3012   1.412       .  A
C3011      C3018   1.507       .  S
C3012      C3013   1.406       .  A
C3012      H3017   1.083       .  S
C3013      C3014   1.418       .  A
C3014      C3015   1.506       .  S
C3015      H3019   1.111       .  S
C3015      H3020   1.101       .  S
C3015      H3021   1.105       .  S
C3018      H3022   1.110       .  S
C3018      H3023   1.108       .  S
C3018      H3024   1.111       .  S
C3025      C3026   1.403       .  A
C3025      C3030   1.408       .  A
C3025      H3032   1.084       .  S
C3026      C3027   1.421       .  A
C3027      C3028   1.408       .  A
C3027      C3034   1.505       .  S
C3028      C3029   1.408       .  A
C3028      H3033   1.085       .  S
C3029      C3030   1.422       .  A
C3030      C3031   1.508       .  S
C3031      H3035   1.111       .  S
C3031      H3036   1.110       .  S
C3031      H3037   1.110       .  S
C3034      H3038   1.110       .  S
C3034      H3039   1.104       .  S
C3034      H3040   1.111       .  S
C3041      C3042   1.411       .  A
C3041      C3046   1.413       .  A
C3041      H3048   1.083       .  S
C3042      C3043   1.414       .  A
C3043      C3044   1.397       .  A
C3043      C3050   1.508       .  S
C3044      C3045   1.410       .  A
C3044      H3049   1.083       .  S
C3045      C3046   1.416       .  A
C3046      C3047   1.505       .  S
C3047      H3051   1.111       .  S
C3047      H3052   1.109       .  S
C3047      H3053   1.110       .  S
C3050      H3054   1.107   1_655  S
C3050      H3055   1.105       .  S
C3050      H3056   1.110       .  S
