geometry optimzed in LAMMPS
_audit_creation_date              2020-12-01 
_audit_creation_method            'lammps2cif' 
_symmetry_space_group_name_H-M    'P1' 
_symmetry_Int_Tables_number       1 
_symmetry_cell_setting            triclinic 
loop_ 
_symmetry_equiv_pos_as_xyz 
  x,y,z 
_cell_length_a                    36.27371452 
_cell_length_b                    38.24764799524518 
_cell_length_c                    38.172066671715925 
_cell_angle_alpha                 94.55078856730482 
_cell_angle_beta                  89.99716395992975 
_cell_angle_gamma                 89.96848653531121 
loop_ 
_atom_site_label 
_atom_site_type_symbol 
_atom_site_fract_x 
_atom_site_fract_y 
_atom_site_fract_z 
_atom_site_charge 
C1          C  0.08271293  0.08905093  0.10237092     0.87100
C2          C  0.10904492  0.06890925  0.12580064    -0.53100
C3          C  0.13489310  0.08944576  0.14397706     0.10000
C4          C  0.12955673  0.12951695  0.13712438     0.21000
C5          C  0.06390547  0.11791600  0.12704734    -0.53900
C6          C  0.08773904  0.14019490  0.14546762     0.10100
C7          C  0.10831362  0.10867627  0.07880555    -0.53400
C8          C  0.13344924  0.12942809  0.09622009     0.10700
H9          H  0.10843563  0.04065239  0.12596214     0.15200
H10         H  0.14899964  0.14754009  0.15180871     0.00900
H11         H  0.03431693  0.12173873  0.12766486     0.15500
H12         H  0.10672966  0.10642988  0.05027722     0.15300
C13         C  0.07623643  0.17624725  0.16627244     0.30600
C14         C  0.07628476  0.24265626  0.20121606     0.30600
C15         C  0.09288923  0.20572004  0.14687796    -0.05600
C16         C  0.03672129  0.19243650  0.17444112    -0.06400
C17         C  0.09223694  0.17935937  0.20334638    -0.06200
C18         C  0.09229458  0.23951953  0.16415197    -0.05600
C19         C  0.03673579  0.22654287  0.19309537    -0.06400
C20         C  0.09292312  0.21316926  0.22060007    -0.06300
C21         C  0.08285688  0.26140708  0.13830464    -0.31600
N22         N  0.08073439  0.24376904  0.10633846     0.14900
C23         C  0.08520650  0.20981009  0.11201403    -0.31600
H24         H  0.07643785  0.18871655  0.09337054     0.16800
C25         C  0.99997733  0.23568305  0.19867103    -0.30600
N26         N  0.47804083  0.20943216  0.18397701     0.13600
C27         C  0.99997085  0.18321564  0.16915701    -0.30600
C28         C  0.08519098  0.20915634  0.25546338    -0.30900
N29         N  0.08047595  0.17524263  0.26115090     0.14100
H30         H  0.07640512  0.23030517  0.27404214     0.16700
C31         C  0.08262931  0.15755298  0.22921114    -0.30900
H32         H  0.07038425  0.13197955  0.22408560     0.16700
H33         H  0.48982731  0.15904536  0.15605609     0.16700
H34         H  0.07074606  0.28705246  0.14343274     0.16800
H35         H  0.48981836  0.25981488  0.21187244     0.16700
C36         C  0.08253292  0.32981991  0.26504556     0.87100
C37         C  0.10909663  0.34988019  0.24177466    -0.53100
C38         C  0.13503508  0.32925882  0.22376523     0.10000
C39         C  0.12956841  0.28921770  0.23066116     0.21000
C40         C  0.06386735  0.30100740  0.24027619    -0.53900
C41         C  0.08778131  0.27865748  0.22205272     0.10100
C42         C  0.10790201  0.31017125  0.28881779    -0.53400
C43         C  0.13314616  0.28935043  0.27161091     0.10700
H44         H  0.10852128  0.37813109  0.24157065     0.15200
H45         H  0.14906859  0.27112010  0.21612166     0.00900
H46         H  0.03427561  0.29728492  0.23944470     0.15500
H47         H  0.10609330  0.31246547  0.31733531     0.15300
C48         C  0.22988331  0.05972817  0.20464666     0.30600
C49         C  0.16828985  0.07485766  0.16541868     0.30600
C50         C  0.23683122  0.07344487  0.16889364    -0.05600
C51         C  0.20556548  0.02824340  0.19439800    -0.06400
C52         C  0.20103595  0.08434356  0.22200822    -0.06200
C53         C  0.20627513  0.08502580  0.15116617    -0.05600
C54         C  0.17403921  0.03452561  0.17353832    -0.06400
C55         C  0.17009265  0.09239811  0.20208109    -0.06300
C56         C  0.21984423  0.11421116  0.13616963    -0.31600
N57         N  0.25709509  0.11368415  0.13552571     0.14900
C58         C  0.26750640  0.08791445  0.15554794    -0.31600
H59         H  0.29529735  0.07964843  0.16032226     0.16800
C60         C  0.15709878  0.00137758  0.16871192    -0.30600
N61         N  0.17633514  0.47766188  0.18691218     0.13600
C62         C  0.20558526  0.49426489  0.20251910    -0.30600
C63         C  0.14171089  0.09731052  0.22517440    -0.30900
N64         N  0.15414027  0.09433767  0.25786303     0.14100
H65         H  0.11319204  0.09593803  0.21801936     0.16700
C66         C  0.18940199  0.08435619  0.25597061    -0.30900
H67         H  0.20427887  0.07338355  0.27699295     0.16700
H68         H  0.22669113  0.48153017  0.21692203     0.16600
H69         H  0.20416837  0.13679657  0.13104865     0.16800
H70         H  0.13337372  0.49463296  0.15246654     0.16700
C71         C  0.32885103  0.12845788  0.06684635     0.87100
C72         C  0.30363450  0.15059478  0.04507544    -0.53100
C73         C  0.27975150  0.17127149  0.06470521     0.10000
C74         C  0.28558646  0.16854311  0.10562444     0.21000
C75         C  0.35035937  0.15402077  0.09273978    -0.53900
C76         C  0.32806296  0.17490683  0.11441468     0.10100
C77         C  0.30328003  0.10853150  0.08977096    -0.53400
C78         C  0.28059586  0.12909781  0.11042877     0.10700
H79         H  0.30298525  0.14797000  0.01660207     0.15200
H80         H  0.26661224  0.18524090  0.12254254     0.00900
H81         H  0.37993976  0.15245352  0.09640770     0.15500
H82         H  0.30340452  0.08012492  0.09019778     0.15300
C83         C  0.10202172  0.12318781  0.33936722     0.87100
C84         C  0.07695256  0.14533214  0.31668112    -0.53100
C85         C  0.09626078  0.16077872  0.29129164     0.10000
C86         C  0.13723845  0.15277976  0.29125308     0.21000
C87         C  0.12124824  0.09720712  0.31291499    -0.53900
C88         C  0.13886021  0.11299530  0.28772770     0.10100
C89         C  0.13276022  0.14813850  0.35442370    -0.53400
C90         C  0.15158180  0.16367795  0.32860182     0.10700
H91         H  0.04709915  0.14613542  0.31852237     0.15200
H92         H  0.15222839  0.16465511  0.26972337     0.00900
H93         H  0.11956879  0.06880546  0.31280868     0.15500
H94         H  0.13925648  0.15181216  0.38209312     0.15300
C95         C  0.34048700  0.22513398  0.21780153     0.30600
C96         C  0.34051787  0.19314135  0.15065411     0.30600
C97         C  0.32367989  0.24571723  0.18930124    -0.05600
C98         C  0.38007086  0.21774272  0.20160154    -0.06400
C99         C  0.32425600  0.18860860  0.21330137    -0.06200
C100        C  0.32421520  0.22963868  0.15512930    -0.05600
C101        C  0.38007210  0.20058442  0.16684758    -0.06400
C102        C  0.32370174  0.17256686  0.17912322    -0.06300
C103        C  0.33253254  0.25591023  0.13375224    -0.31600
N104        N  0.33434880  0.28715698  0.15236606     0.14900
C105        C  0.33042496  0.28082204  0.18622667    -0.31600
H106        H  0.33815735  0.29944085  0.20770411     0.16800
C107        C  0.41677883  0.19566716  0.15731988    -0.30600
N108        N  0.43875177  0.20936726  0.18408595     0.13600
C109        C  0.41680190  0.22293220  0.21095909    -0.30600
C110        C  0.33031134  0.13743137  0.18213528    -0.30900
N111        N  0.33416864  0.13102484  0.21597893     0.14100
H112        H  0.33796253  0.11879926  0.16063621     0.16700
C113        C  0.33252189  0.16226727  0.23463577    -0.30900
H114        H  0.34398867  0.16630058  0.26066094     0.16700
H115        H  0.42688252  0.23516359  0.23562046     0.16700
H116        H  0.34402014  0.25177644  0.10774936     0.16800
H117        H  0.42683440  0.18356637  0.13258603     0.16700
C118        C  0.31788126  0.36570126  0.10088957     0.87100
C119        C  0.28580918  0.38137178  0.12482551    -0.53100
C120        C  0.26521465  0.35589790  0.13963413     0.10000
C121        C  0.27911621  0.31839593  0.12845193     0.21000
C122        C  0.34045972  0.34239563  0.12407699    -0.53900
C123        C  0.31963695  0.31768003  0.13835888     0.10100
C124        C  0.29907549  0.33985633  0.07366258    -0.53400
C125        C  0.27938142  0.31493736  0.08835040     0.10700
H126        H  0.28022848  0.40919299  0.12909083     0.15200
H127        H  0.26326025  0.29701033  0.13958672     0.00900
H128        H  0.37029912  0.34323078  0.12633310     0.15500
H129        H  0.30269012  0.33995950  0.04540640     0.15300
C130        C  0.31702667  0.05265240  0.26745222     0.87100
C131        C  0.28511486  0.03700052  0.24336218    -0.53100
C132        C  0.26468847  0.06248575  0.22837935     0.10000
C133        C  0.27860816  0.09997948  0.23951442     0.21000
C134        C  0.33984531  0.07582624  0.24436457    -0.53900
C135        C  0.31921846  0.10056709  0.22989298     0.10100
C136        C  0.29806658  0.07860285  0.29450139    -0.53400
C137        C  0.27853948  0.10352577  0.27960484     0.10700
H138        H  0.27947612  0.00919264  0.23917953     0.15200
H139        H  0.26288609  0.12137169  0.22821627     0.00900
H140        H  0.36970099  0.07490710  0.24232392     0.15500
H141        H  0.30145756  0.07855739  0.32278722     0.15300
C142        C  0.23032749  0.35869680  0.16331343     0.30600
C143        C  0.16855058  0.34372033  0.20238485     0.30600
C144        C  0.23711567  0.34496100  0.19909803    -0.05600
C145        C  0.20597831  0.39023598  0.17345744    -0.06400
C146        C  0.20150183  0.33412249  0.14588498    -0.06200
C147        C  0.20646462  0.33348770  0.21675059    -0.05600
C148        C  0.17436585  0.38400596  0.19421151    -0.06400
C149        C  0.17045106  0.32615515  0.16573315    -0.06300
C150        C  0.21988871  0.30430783  0.23186762    -0.31600
N151        N  0.25713261  0.30471830  0.23262384     0.14900
C152        C  0.26769787  0.33041667  0.21258105    -0.31600
H153        H  0.29552409  0.33862441  0.20792535     0.16800
C154        C  0.15720294  0.41707560  0.19867671    -0.30600
N155        N  0.17638691  0.44073228  0.18039032     0.13600
C156        C  0.20582065  0.42413773  0.16504642    -0.30600
C157        C  0.14210936  0.32149796  0.14256739    -0.30900
N158        N  0.15462360  0.32454971  0.10992340     0.14100
H159        H  0.11356300  0.32302377  0.14967543     0.16700
C160        C  0.18995027  0.33426679  0.11191070    -0.30900
H161        H  0.20493394  0.34523450  0.09095750     0.16700
H162        H  0.22691890  0.43683697  0.15061366     0.16700
H163        H  0.20412950  0.28181516  0.23705452     0.16800
H164        H  0.13332725  0.42382208  0.21472127     0.16700
C165        C  0.10298935  0.29564891  0.02816160     0.87100
C166        C  0.07771004  0.27360387  0.05072695    -0.53100
C167        C  0.09679479  0.25818151  0.07629373     0.10000
C168        C  0.13779872  0.26610623  0.07658961     0.21000
C169        C  0.12204002  0.32165928  0.05468711    -0.53900
C170        C  0.13944192  0.30588690  0.08003328     0.10100
C171        C  0.13377869  0.27061822  0.01338931    -0.53400
C172        C  0.15239701  0.25511188  0.03936006     0.10700
H173        H  0.04787393  0.27283184  0.04866204     0.15200
H174        H  0.15263330  0.25424995  0.09823062     0.00900
H175        H  0.12041735  0.35005705  0.05469205     0.15500
H176        H  0.14040277  0.26687908  0.98576530     0.15300
C177        C  0.32844334  0.28975288  0.30166500     0.87100
C178        C  0.35007440  0.26417747  0.27584030    -0.53100
C179        C  0.32787267  0.24336879  0.25401559     0.10000
C180        C  0.28534958  0.24979227  0.26262782     0.21000
C181        C  0.30303303  0.30975624  0.27863350    -0.53900
C182        C  0.28045332  0.28925046  0.25783534     0.10100
C183        C  0.30307937  0.26764465  0.32327618    -0.53400
C184        C  0.27927019  0.24704769  0.30351952     0.10700
H185        H  0.37968009  0.26568508  0.27232530     0.15200
H186        H  0.26644396  0.23315085  0.24560234     0.00900
H187        H  0.30319915  0.33816456  0.27822982     0.15500
H188        H  0.30225074  0.27027905  0.35174285     0.15300
C189        C  0.18668028  0.23196027  0.03689415     0.30600
C190        C  0.24739368  0.19165938  0.04896627     0.30600
C191        C  0.17952438  0.19749491  0.05263800    -0.05600
C192        C  0.20938557  0.22066210  0.00397295    -0.06400
C193        C  0.21632003  0.24925301  0.06014407    -0.06200
C194        C  0.20951958  0.17679113  0.05855231    -0.05600
C195        C  0.24093328  0.19965310  0.00923854    -0.06400
C196        C  0.24712107  0.22891360  0.06665815    -0.06300
C197        C  0.19518916  0.14653443  0.07077320    -0.31600
N198        N  0.15841534  0.15102987  0.07734510     0.14900
C199        C  0.14854406  0.18067672  0.06280088    -0.31600
H200        H  0.12094450  0.18868194  0.05759043     0.16800
C201        C  0.25714966  0.19424684  0.47592769    -0.30600
N202        N  0.23727281  0.21206392  0.45248000     0.13600
C203        C  0.20840938  0.22796627  0.46956180    -0.30600
C204        C  0.27600292  0.25210324  0.07062690    -0.30900
N205        N  0.26382265  0.28521280  0.06877147     0.14100
H206        H  0.30448076  0.24471357  0.06857356     0.16700
C207        C  0.22811597  0.28325294  0.06000806    -0.30900
H208        H  0.21277616  0.30434386  0.04973890     0.16700
H209        H  0.18736222  0.24236281  0.45685498     0.16700
H210        H  0.21035790  0.12263160  0.07326413     0.16800
H211        H  0.28077262  0.17790456  0.46898465     0.16700
C212        C  0.18592143  0.18673080  0.33125243     0.30600
C213        C  0.24676912  0.22679475  0.31915019     0.30600
C214        C  0.17886084  0.22133592  0.31569373    -0.05600
C215        C  0.20878014  0.19776890  0.36415032    -0.06400
C216        C  0.21546764  0.16939422  0.30787348    -0.06200
C217        C  0.20893229  0.24190879  0.30974828    -0.05600
C218        C  0.24041541  0.21861540  0.35883849    -0.06400
C219        C  0.24627441  0.18964955  0.30127547    -0.06300
C220        C  0.19473725  0.27213956  0.29732667    -0.31600
N221        N  0.15796236  0.26777257  0.29072113     0.14900
C222        C  0.14795288  0.23823140  0.30539292    -0.31600
H223        H  0.12031391  0.23026579  0.31043836     0.16800
C224        C  0.25694354  0.22363044  0.39203315    -0.30600
N225        N  0.23715719  0.20577840  0.41549491     0.13600
C226        C  0.20802969  0.19021764  0.39851699    -0.30600
C227        C  0.27508796  0.16640355  0.29707425    -0.30900
N228        N  0.26288842  0.13333479  0.29898101     0.14100
H229        H  0.30356908  0.17373496  0.29898420     0.16700
C230        C  0.22722583  0.13535480  0.30791802    -0.30900
H231        H  0.21191061  0.11428647  0.31823159     0.16700
H232        H  0.18695265  0.17586185  0.41122867     0.16700
H233        H  0.21000983  0.29594213  0.29470840     0.16800
H234        H  0.28073055  0.23974516  0.39891021     0.16700
N235        N  0.49709345  0.02683936  0.47395176    -0.05500
N236        N  0.99873474  0.04866005  0.00270703    -0.57600
N237        N  0.02712156  0.50041557  0.39596442    -0.05200
N238        N  0.05703735  0.01527212  0.38397410    -0.59800
N239        N  0.49866358  0.02116331  0.39265857    -0.04800
N240        N  0.00835067  0.04952063  0.37774035    -0.57600
N241        N  0.02260285  0.50228055  0.47538733    -0.04500
N242        N  0.04193202  0.00702654  0.00472401    -0.60100
C243        C  0.02668913  0.03587748  0.02164809     0.96700
C244        C  0.04459172  0.04570425  0.37241965     0.96400
N245        N  0.49692206  0.39174453  0.39340161    -0.05700
N246        N  0.49833034  0.37000519  0.36454521    -0.58200
N247        N  0.02767775  0.41810242  0.47108150    -0.03800
N248        N  0.05781906  0.40323338  0.48262512    -0.59500
N249        N  0.49935697  0.39729576  0.47463365    -0.05700
N250        N  0.50932831  0.36888601  0.48931824    -0.58500
N251        N  0.02224350  0.41632403  0.39179682    -0.03500
N252        N  0.04128753  0.41171002  0.36227296    -0.59600
Mn253      Mn  0.02605018  0.45928403  0.43356262     1.18400
C254        C  0.02601531  0.38286774  0.34542915     0.98700
C255        C  0.04565887  0.37276799  0.99420910     0.99400
N256        N  0.41206276  0.01542172  0.38707496    -0.05800
N257        N  0.40843335  0.02917168  0.35638662    -0.62100
N258        N  0.38542006  0.00727644  0.47046099    -0.04600
N259        N  0.36261571  0.01938915  0.99566896    -0.62700
N260        N  0.41278858  0.02923962  0.46813148    -0.05300
N261        N  0.41003765  0.05616682  0.99132112    -0.62300
N262        N  0.38646857  0.99137040  0.38994028    -0.04200
N263        N  0.36538658  0.98802325  0.36180631    -0.63000
Mn264      Mn  0.45497609  0.02394268  0.42995706     1.10700
C265        C  0.37941728  0.01135942  0.34093367     1.00000
C266        C  0.37913128  0.04963506  0.00854148     1.00000
N267        N  0.41265280  0.40300850  0.48109199    -0.05300
N268        N  0.40928192  0.38928292  0.51182639    -0.60600
N269        N  0.38521654  0.41106245  0.39787951    -0.04600
N270        N  0.36216170  0.39884389  0.37293115    -0.57400
N271        N  0.41266779  0.38912811  0.40001904    -0.05900
N272        N  0.40973486  0.36212203  0.37693367    -0.60200
N273        N  0.38695597  0.42702326  0.47838815    -0.04900
N274        N  0.36608306  0.43037749  0.50667082    -0.57400
Mn275      Mn  0.45522781  0.39450976  0.43779688     1.20200
Mn276      Mn  0.38432840  0.45918280  0.43416425     1.10100
Cl277      Cl  0.45530140  0.45922654  0.43388464    -0.85400
C278        C  0.38032575  0.40709853  0.02748784     0.97000
C279        C  0.37861363  0.36856225  0.36001176     0.96800
C280        C  0.34970371  0.31541013  0.32288624    -0.12700
C281        C  0.36143981  0.34101288  0.33914118    -0.14200
C282        C  0.06807784  0.34229622  0.99578367    -0.12700
C283        C  0.08375726  0.31645079  0.00375703    -0.14200
C284        C  0.34087983  0.02948718  0.28648142    -0.12700
C285        C  0.36077127  0.01985675  0.30930215    -0.14200
C286        C  0.36180636  0.39851575  0.05918373    -0.12700
C287        C  0.34191166  0.38885601  0.08200337    -0.14200
C288        C  0.08252178  0.10227780  0.36347800    -0.12700
C289        C  0.06682171  0.07630748  0.37105577    -0.14200
C290        C  0.35023971  0.10274268  0.04579500    -0.12700
C291        C  0.36204515  0.07713878  0.02957276    -0.14200
C292        C  0.05684364  0.35163277  0.28783042    -0.12700
C293        C  0.04046955  0.36622206  0.31269692    -0.14200
C294        C  0.04111093  0.05251810  0.05440771    -0.12700
C295        C  0.05723990  0.06722389  0.07936385    -0.14200
C296        C  0.08271034  0.08904691  0.60237819     0.87100
C297        C  0.10903983  0.06890682  0.62581035    -0.53100
C298        C  0.13488642  0.08944360  0.64398702     0.10000
C299        C  0.12955165  0.12951456  0.63713196     0.21000
C300        C  0.06390116  0.11791348  0.62705172    -0.53900
C301        C  0.08773415  0.14019293  0.64547203     0.10100
C302        C  0.10831251  0.10867136  0.57881248    -0.53400
C303        C  0.13344668  0.12942515  0.59622758     0.10700
H304        H  0.10843052  0.04065002  0.62597310     0.15200
H305        H  0.14899310  0.14753810  0.65181763     0.00900
H306        H  0.03431231  0.12173565  0.62766871     0.15500
H307        H  0.10672984  0.10642345  0.55028414     0.15300
C308        C  0.07623328  0.17624417  0.66627871     0.30600
C309        C  0.07628626  0.24264958  0.70122935     0.30600
C310        C  0.09288917  0.20571771  0.64688863    -0.05600
C311        C  0.03671911  0.19243558  0.67444837    -0.06400
C312        C  0.09223627  0.17935192  0.70335109    -0.06200
C313        C  0.09229900  0.23951530  0.66416749    -0.05600
C314        C  0.03673585  0.22654022  0.69310587    -0.06400
C315        C  0.09292234  0.21315968  0.72060947    -0.06300
C316        C  0.08286805  0.26140918  0.63832508    -0.31600
N317        N  0.08074052  0.24377501  0.60635780     0.14900
C318        C  0.08520626  0.20981409  0.61202669    -0.31600
H319        H  0.07643200  0.18872471  0.59338037     0.16800
C320        C  0.99997763  0.23568440  0.69867808    -0.30600
N321        N  0.47803885  0.20942669  0.68397388     0.13600
C322        C  0.99996793  0.18321991  0.66915864    -0.30600
C323        C  0.08519034  0.20914160  0.75547110    -0.30900
N324        N  0.08048048  0.17522622  0.76115306     0.14100
H325        H  0.07640308  0.23028715  0.77405306     0.16700
C326        C  0.08263491  0.15754017  0.72921183    -0.30900
H327        H  0.07039259  0.13196646  0.72408292     0.16700
H328        H  0.48982694  0.15904147  0.65605064     0.16700
H329        H  0.07076078  0.28705524  0.64345765     0.16800
H330        H  0.48981574  0.25980620  0.71187572     0.16700
C331        C  0.08254225  0.32981027  0.76505917     0.87100
C332        C  0.10910120  0.34987165  0.74178463    -0.53100
C333        C  0.13503757  0.32925120  0.72377103     0.10000
C334        C  0.12957312  0.28920968  0.73066748     0.21000
C335        C  0.06387360  0.30099781  0.74029310    -0.53900
C336        C  0.08778522  0.27864892  0.72206614     0.10100
C337        C  0.10791588  0.31016232  0.78882773    -0.53400
C338        C  0.13315725  0.28934143  0.77161655     0.10700
H339        H  0.10852533  0.37812254  0.74158178     0.15200
H340        H  0.14907113  0.27111217  0.71612444     0.00900
H341        H  0.03428190  0.29727478  0.73946590     0.15500
H342        H  0.10611055  0.31245528  0.81734544     0.15300
C343        C  0.22987673  0.05972346  0.70465097     0.30600
C344        C  0.16828180  0.07485408  0.66542807     0.30600
C345        C  0.23682211  0.07344814  0.66890236    -0.05600
C346        C  0.20556363  0.02823744  0.69439672    -0.06400
C347        C  0.20102725  0.08433273  0.72201888    -0.06200
C348        C  0.20626563  0.08502906  0.65117769    -0.05600
C349        C  0.17403556  0.03452006  0.67353984    -0.06400
C350        C  0.17008074  0.09238584  0.70209465    -0.06300
C351        C  0.21983363  0.11421328  0.63617824    -0.31600
N352        N  0.25708465  0.11368537  0.63553202     0.14900
C353        C  0.26749657  0.08791581  0.65555413    -0.31600
H354        H  0.29528722  0.07964669  0.66032464     0.16800
C355        C  0.15709523  0.00137155  0.66871488    -0.30600
N356        N  0.17633373  0.47765622  0.68691401     0.13600
C357        C  0.20558456  0.49425968  0.70251822    -0.30600
C358        C  0.14169764  0.09727904  0.72518981    -0.30900
N359        N  0.15412858  0.09430107  0.75787707     0.14100
H360        H  0.11317768  0.09589883  0.71803553     0.16700
C361        C  0.18939437  0.08433273  0.75598077    -0.30900
H362        H  0.20427604  0.07335949  0.77699973     0.16700
H363        H  0.22668966  0.48152609  0.71692180     0.16600
H364        H  0.20415799  0.13679767  0.63105537     0.16800
H365        H  0.13336815  0.49462740  0.65247368     0.16700
C366        C  0.32884009  0.12845056  0.56685012     0.87100
C367        C  0.30362659  0.15059041  0.54507853    -0.53100
C368        C  0.27974629  0.17127043  0.56470879     0.10000
C369        C  0.28558010  0.16854076  0.60562767     0.21000
C370        C  0.35035091  0.15401110  0.59274327    -0.53900
C371        C  0.32805694  0.17490011  0.61441687     0.10100
C372        C  0.30326608  0.10852716  0.58977453    -0.53400
C373        C  0.28058446  0.12909606  0.61043230     0.10700
H374        H  0.30297667  0.14796542  0.51660506     0.15200
H375        H  0.26660776  0.18524052  0.62254575     0.00900
H376        H  0.37993091  0.15244076  0.59641190     0.15500
H377        H  0.30338768  0.08012061  0.59020231     0.15300
C378        C  0.10202045  0.12318465  0.83937759     0.87100
C379        C  0.07695534  0.14532593  0.81668653    -0.53100
C380        C  0.09626569  0.16076057  0.79129161     0.10000
C381        C  0.13724225  0.15275498  0.79125288     0.21000
C382        C  0.12124182  0.09719303  0.81293212    -0.53900
C383        C  0.13885674  0.11296996  0.78773923     0.10100
C384        C  0.13276287  0.14813347  0.85442663    -0.53400
C385        C  0.15158780  0.16366108  0.82859900     0.10700
H386        H  0.04710283  0.14613732  0.81853017     0.15200
H387        H  0.15223400  0.16462228  0.76971898     0.00900
H388        H  0.11955636  0.06879230  0.81283384     0.15500
H389        H  0.13925697  0.15181595  0.88209561     0.15300
C390        C  0.34048591  0.22512588  0.71780038     0.30600
C391        C  0.34051382  0.19313390  0.65065460     0.30600
C392        C  0.32367707  0.24570956  0.68930162    -0.05600
C393        C  0.38006892  0.21773513  0.70159942    -0.06400
C394        C  0.32425344  0.18860108  0.71330159    -0.06200
C395        C  0.32421034  0.22963096  0.65513005    -0.05600
C396        C  0.38006904  0.20057673  0.66684607    -0.06400
C397        C  0.32369873  0.17255926  0.67912388    -0.06300
C398        C  0.33252545  0.25590233  0.63375225    -0.31600
N399        N  0.33434403  0.28714898  0.65236629     0.14900
C400        C  0.33042217  0.28081424  0.68622695    -0.31600
H401        H  0.33815651  0.29943290  0.70770433     0.16800
C402        C  0.41677590  0.19566048  0.65731713    -0.30600
N403        N  0.43874957  0.20936185  0.68408238     0.13600
C404        C  0.41679993  0.22292639  0.71095567    -0.30600
C405        C  0.33030695  0.13742368  0.68213601    -0.30900
N406        N  0.33416188  0.13101715  0.71597993     0.14100
H407        H  0.33795775  0.11879104  0.66063699     0.16700
C408        C  0.33251556  0.16225968  0.73463693    -0.30900
H409        H  0.34398145  0.16629305  0.76066245     0.16700
H410        H  0.42688076  0.23515795  0.73561688     0.16700
H411        H  0.34401043  0.25176822  0.60774900     0.16800
H412        H  0.42683068  0.18355967  0.63258343     0.16700
C413        C  0.31788628  0.36569843  0.60089433     0.87100
C414        C  0.28581448  0.38136967  0.62483188    -0.53100
C415        C  0.26521682  0.35589553  0.63963803     0.10000
C416        C  0.27911560  0.31839378  0.62845241     0.21000
C417        C  0.34046154  0.34238875  0.62408033    -0.53900
C418        C  0.31963583  0.31767384  0.63835984     0.10100
C419        C  0.29907822  0.33985725  0.57366566    -0.53400
C420        C  0.27938161  0.31493882  0.58835100     0.10700
H421        H  0.28023612  0.40919114  0.62909959     0.15200
H422        H  0.26325777  0.29700812  0.63958461     0.00900
H423        H  0.37030090  0.34322106  0.62633744     0.15500
H424        H  0.30269355  0.33996184  0.54540953     0.15300
C425        C  0.31702748  0.05263217  0.76743898     0.87100
C426        C  0.28511207  0.03698709  0.74335144    -0.53100
C427        C  0.26468332  0.06247678  0.72837958     0.10000
C428        C  0.27860500  0.09996842  0.73952051     0.21000
C429        C  0.33984302  0.07581159  0.74435413    -0.53900
C430        C  0.31921393  0.10055774  0.72989304     0.10100
C431        C  0.29807331  0.07857732  0.79449763    -0.53400
C432        C  0.27854383  0.10350499  0.77961057     0.10700
H433        H  0.27947379  0.00917947  0.73916204     0.15200
H434        H  0.26288050  0.12136373  0.72823023     0.00900
H435        H  0.36969821  0.07489049  0.74230685     0.15500
H436        H  0.30146977  0.07852492  0.82278197     0.15300
C437        C  0.23032907  0.35869262  0.66331793     0.30600
C438        C  0.16855164  0.34371480  0.70238933     0.30600
C439        C  0.23711680  0.34495109  0.69909986    -0.05600
C440        C  0.20598254  0.39023227  0.67346728    -0.06400
C441        C  0.20150013  0.33412272  0.64588667    -0.06200
C442        C  0.20646577  0.33347751  0.71675158    -0.05600
C443        C  0.17436956  0.38400161  0.69422089    -0.06400
C444        C  0.17044783  0.32615648  0.66573431    -0.06300
C445        C  0.21988991  0.30429904  0.73187058    -0.31600
N446        N  0.25713374  0.30471153  0.73262948     0.14900
C447        C  0.26769913  0.33040940  0.71258581    -0.31600
H448        H  0.29552562  0.33861809  0.70793113     0.16800
C449        C  0.15720367  0.41707017  0.69868217    -0.30600
N450        N  0.17638647  0.44072639  0.68039394     0.13600
C451        C  0.20582183  0.42413254  0.66505256    -0.30600
C452        C  0.14210345  0.32151569  0.64256863    -0.30900
N453        N  0.15461686  0.32457150  0.60992491     0.14100
H454        H  0.11355749  0.32304997  0.64967751     0.16700
C455        C  0.18994704  0.33427712  0.61191340    -0.30900
H456        H  0.20493379  0.34524462  0.59096183     0.16700
H457        H  0.22691870  0.43683128  0.65061688     0.16700
H458        H  0.20413094  0.28180534  0.73705700     0.16800
H459        H  0.13332525  0.42381560  0.71472324     0.16700
C460        C  0.10297899  0.29564415  0.52817232     0.87100
C461        C  0.07770628  0.27360232  0.55074520    -0.53100
C462        C  0.09679651  0.25818953  0.57631347     0.10000
C463        C  0.13779969  0.26611865  0.57660396     0.21000
C464        C  0.12202960  0.32166359  0.55468958    -0.53900
C465        C  0.13943826  0.30589997  0.58003787     0.10100
C466        C  0.13376910  0.27061418  0.51340184    -0.53400
C467        C  0.15239369  0.25511680  0.53937438     0.10700
H468        H  0.04786996  0.27282408  0.54868246     0.15200
H469        H  0.15263821  0.25426834  0.59824653     0.00900
H470        H  0.12040116  0.35006032  0.55468817     0.15500
H471        H  0.14038639  0.26686641  0.48577635     0.15300
C472        C  0.32844709  0.28973828  0.80166696     0.87100
C473        C  0.35007710  0.26416679  0.77583846    -0.53100
C474        C  0.32787419  0.24336024  0.75401340     0.10000
C475        C  0.28535206  0.24978203  0.76262676     0.21000
C476        C  0.30303485  0.30974510  0.77863987    -0.53900
C477        C  0.28045460  0.28924138  0.75783974     0.10100
C478        C  0.30308521  0.26762575  0.82327539    -0.53400
C479        C  0.27927614  0.24703038  0.80351682     0.10700
H480        H  0.37968241  0.26567442  0.77232281     0.15200
H481        H  0.26644608  0.23314208  0.74560012     0.00900
H482        H  0.30320157  0.33815365  0.77823932     0.15500
H483        H  0.30225789  0.27025649  0.85174207     0.15300
C484        C  0.18667577  0.23196407  0.53690768     0.30600
C485        C  0.24738922  0.19166121  0.54897225     0.30600
C486        C  0.17952043  0.19749948  0.55265324    -0.05600
C487        C  0.20937720  0.22066570  0.50398355    -0.06400
C488        C  0.21631836  0.24925616  0.56015446    -0.06200
C489        C  0.20951563  0.17679425  0.55856287    -0.05600
C490        C  0.24092475  0.19965563  0.50924537    -0.06400
C491        C  0.24712065  0.22891633  0.56666354    -0.06300
C492        C  0.19518552  0.14653536  0.57078003    -0.31600
N493        N  0.15841186  0.15102975  0.57735383     0.14900
C494        C  0.14854043  0.18067964  0.56281481    -0.31600
H495        H  0.12094073  0.18868445  0.55760376     0.16800
C496        C  0.25715783  0.19423818  0.97592147    -0.30600
N497        N  0.23727982  0.21204989  0.95247074     0.13600
C498        C  0.20841608  0.22795486  0.96954944    -0.30600
C499        C  0.27600363  0.25210622  0.57062383    -0.30900
N500        N  0.26382272  0.28521597  0.56876977     0.14100
H501        H  0.30448043  0.24471684  0.56856296     0.16700
C502        C  0.22811397  0.28325593  0.56001528    -0.30900
H503        H  0.21277208  0.30434640  0.54974837     0.16700
H504        H  0.18736659  0.24234596  0.95683970     0.16700
H505        H  0.21035464  0.12263161  0.57326826     0.16800
H506        H  0.28077955  0.17789352  0.96898036     0.16700
C507        C  0.18592862  0.18671184  0.83124476     0.30600
C508        C  0.24677687  0.22677419  0.81914428     0.30600
C509        C  0.17886936  0.22131513  0.81568302    -0.05600
C510        C  0.20878631  0.19775133  0.86414312    -0.06400
C511        C  0.21547521  0.16937300  0.80786762    -0.06200
C512        C  0.20894142  0.24188763  0.80973961    -0.05600
C513        C  0.24042146  0.21859730  0.85883155    -0.06400
C514        C  0.24628428  0.18962722  0.80127200    -0.06300
C515        C  0.19474768  0.27212251  0.79732645    -0.31600
N516        N  0.15797246  0.26775840  0.79072158     0.14900
C517        C  0.14796205  0.23821433  0.80538732    -0.31600
H518        H  0.12032239  0.23025113  0.81043640     0.16800
C519        C  0.25695121  0.22361167  0.89202484    -0.30600
N520        N  0.23716586  0.20575948  0.91548647     0.13600
C521        C  0.20803805  0.19019848  0.89850933    -0.30600
C522        C  0.27509853  0.16637973  0.79708511    -0.30900
N523        N  0.26289796  0.13331141  0.79899514     0.14100
H524        H  0.30357873  0.17371051  0.79900544     0.16700
C525        C  0.22723254  0.13533395  0.80792047    -0.30900
H526        H  0.21191390  0.11426811  0.81823424     0.16700
H527        H  0.18696244  0.17584222  0.91122171     0.16700
H528        H  0.21002141  0.29592569  0.79471310     0.16800
H529        H  0.28073841  0.23972588  0.89890158     0.16700
N530        N  0.49708565  0.02685583  0.97392587    -0.05500
N531        N  0.99873036  0.04863716  0.50273032    -0.57600
N532        N  0.02711721  0.50041824  0.89594326    -0.05200
N533        N  0.05703170  0.01527629  0.88395329    -0.59800
N534        N  0.49864948  0.02115141  0.89262819    -0.04800
N535        N  0.00834208  0.04951807  0.87771149    -0.57600
N536        N  0.02260862  0.50230237  0.97536708    -0.04500
N537        N  0.04192495  0.00700103  0.50474550    -0.60100
C538        C  0.02668223  0.03585139  0.52167142     0.96700
C539        C  0.04458437  0.04570638  0.87239642     0.96400
N540        N  0.49691982  0.39173838  0.89341343    -0.05700
N541        N  0.49832749  0.36999347  0.86456093    -0.58200
N542        N  0.02769251  0.41812329  0.97107747    -0.03800
N543        N  0.05783892  0.40325376  0.98261052    -0.59500
N544        N  0.49936247  0.39731415  0.97464572    -0.05700
N545        N  0.50934221  0.36890933  0.98933482    -0.58500
N546        N  0.02224683  0.41632945  0.89179660    -0.03500
N547        N  0.04129105  0.41170946  0.86227366    -0.59600
Mn548      Mn  0.02605404  0.45929748  0.93355121     1.18400
C549        C  0.02602266  0.38286107  0.84543868     0.98700
C550        C  0.04563383  0.37274714  0.49421842     0.99400
N551        N  0.41205415  0.01540402  0.88705057    -0.05800
N552        N  0.40842751  0.02914379  0.85635708    -0.62100
N553        N  0.38541192  0.00728351  0.97044020    -0.04600
N554        N  0.36262159  0.01937789  0.49568935    -0.62700
N555        N  0.41277825  0.02924771  0.96810249    -0.05300
N556        N  0.41004747  0.05615319  0.49135667    -0.62300
N557        N  0.38646173  0.99135220  0.88992100    -0.04200
N558        N  0.36538287  0.98799517  0.86178504    -0.63000
Mn559      Mn  0.45496574  0.02394144  0.92993007     1.10700
C560        C  0.37941524  0.01132515  0.84090601     1.00000
C561        C  0.37913796  0.04961971  0.50857186     1.00000
N562        N  0.41265456  0.40302167  0.98110269    -0.05300
N563        N  0.40928201  0.38930073  0.01183887    -0.60600
N564        N  0.38521582  0.41104754  0.89788701    -0.04600
N565        N  0.36216290  0.39882192  0.87294009    -0.57400
N566        N  0.41266591  0.38911336  0.90003662    -0.05900
N567        N  0.40973282  0.36209895  0.87696106    -0.60200
N568        N  0.38695511  0.42703272  0.97839159    -0.04900
N569        N  0.36607871  0.43038897  0.00667173    -0.57400
Mn570      Mn  0.45522896  0.39451253  0.93781082     1.20200
Mn571      Mn  0.38432350  0.45917880  0.93415685     1.10100
Cl572      Cl  0.45529510  0.45922742  0.93387815    -0.85400
C573        C  0.38032881  0.40708148  0.52748130     0.97000
C574        C  0.37861394  0.36853551  0.86003350     0.96800
C575        C  0.34970969  0.31539075  0.82289166    -0.12700
C576        C  0.36144697  0.34098849  0.83915400    -0.14200
C577        C  0.06805183  0.34227605  0.49579325    -0.12700
C578        C  0.08373811  0.31643477  0.50376570    -0.14200
C579        C  0.34087990  0.02945799  0.78645678    -0.12700
C580        C  0.36076921  0.01981993  0.80927460    -0.14200
C581        C  0.36181533  0.39850284  0.55918293    -0.12700
C582        C  0.34192096  0.38884983  0.58200697    -0.14200
C583        C  0.08251456  0.10228632  0.86349257    -0.12700
C584        C  0.06680959  0.07631464  0.87105721    -0.14200
C585        C  0.35022898  0.10273290  0.54580262    -0.12700
C586        C  0.36204196  0.07712664  0.52959036    -0.14200
C587        C  0.05685419  0.35162118  0.78784578    -0.12700
C588        C  0.04047806  0.36621023  0.81271041    -0.14200
C589        C  0.04111097  0.05249874  0.55442430    -0.12700
C590        C  0.05723990  0.06721461  0.57937443    -0.14200
C591        C  0.08271281  0.58905097  0.10237093     0.87100
C592        C  0.10904485  0.56890930  0.12580066    -0.53100
C593        C  0.13489304  0.58944581  0.14397708     0.10000
C594        C  0.12955658  0.62951700  0.13712439     0.21000
C595        C  0.06390527  0.61791598  0.12704731    -0.53900
C596        C  0.08773880  0.64019488  0.14546760     0.10100
C597        C  0.10831355  0.60867637  0.07880559    -0.53400
C598        C  0.13344922  0.62942812  0.09622013     0.10700
H599        H  0.10843565  0.54065245  0.12596212     0.15200
H600        H  0.14899951  0.64754030  0.15180872     0.00900
H601        H  0.03431639  0.62173871  0.12766483     0.15500
H602        H  0.10672974  0.60642991  0.05027728     0.15300
C603        C  0.07623635  0.67624723  0.16627244     0.30600
C604        C  0.07628476  0.74265626  0.20121607     0.30600
C605        C  0.09288925  0.70571990  0.14687786    -0.05600
C606        C  0.03672125  0.69243658  0.17444119    -0.06400
C607        C  0.09223675  0.67935924  0.20334638    -0.06200
C608        C  0.09229454  0.73951946  0.16415191    -0.05600
C609        C  0.03673570  0.72654300  0.19309546    -0.06400
C610        C  0.09292308  0.71316918  0.22060003    -0.06300
C611        C  0.08285690  0.76140700  0.13830459    -0.31600
N612        N  0.08073432  0.74376888  0.10633839     0.14900
C613        C  0.08520634  0.70980992  0.11201395    -0.31600
H614        H  0.07643769  0.68871611  0.09337029     0.16800
C615        C  0.99997723  0.73568314  0.19867107    -0.30600
N616        N  0.47804087  0.70943213  0.18397702     0.13600
C617        C  0.99997081  0.68321576  0.16915711    -0.30600
C618        C  0.08519102  0.70915629  0.25546333    -0.30900
N619        N  0.08047589  0.67524257  0.26115087     0.14100
H620        H  0.07640509  0.73030515  0.27404206     0.16700
C621        C  0.08262922  0.65755287  0.22921118    -0.30900
H622        H  0.07038373  0.63197938  0.22408568     0.16700
H623        H  0.48982735  0.65904533  0.15605610     0.16700
H624        H  0.07074621  0.78705245  0.14343269     0.16800
H625        H  0.48981840  0.75981485  0.21187243     0.16700
C626        C  0.08253287  0.82981995  0.26504554     0.87100
C627        C  0.10909661  0.84988021  0.24177463    -0.53100
C628        C  0.13503505  0.82925881  0.22376523     0.10000
C629        C  0.12956841  0.78921769  0.23066124     0.21000
C630        C  0.06386737  0.80100743  0.24027617    -0.53900
C631        C  0.08778135  0.77865749  0.22205274     0.10100
C632        C  0.10790191  0.81017130  0.28881782    -0.53400
C633        C  0.13314607  0.78935042  0.27161100     0.10700
H634        H  0.10852133  0.87813114  0.24157061     0.15200
H635        H  0.14906853  0.77112006  0.21612173     0.00900
H636        H  0.03427568  0.79728496  0.23944473     0.15500
H637        H  0.10609305  0.81246571  0.31733538     0.15300
C638        C  0.22988333  0.55972816  0.20464668     0.30600
C639        C  0.16828983  0.57485760  0.16541868     0.30600
C640        C  0.23683122  0.57344480  0.16889364    -0.05600
C641        C  0.20556560  0.52824330  0.19439805    -0.06400
C642        C  0.20103598  0.58434354  0.22200823    -0.06200
C643        C  0.20627512  0.58502575  0.15116617    -0.05600
C644        C  0.17403916  0.53452550  0.17353836    -0.06400
C645        C  0.17009271  0.59239815  0.20208104    -0.06300
C646        C  0.21984424  0.61421114  0.13616967    -0.31600
N647        N  0.25709510  0.61368412  0.13552575     0.14900
C648        C  0.26750639  0.58791438  0.15554795    -0.31600
H649        H  0.29529736  0.57964828  0.16032224     0.16800
C650        C  0.15709867  0.50137753  0.16871184    -0.30600
N651        N  0.17633519  0.97766194  0.18691228     0.13600
C652        C  0.20558531  0.99426498  0.20251907    -0.30600
C653        C  0.14171100  0.59731056  0.22517437    -0.30900
N654        N  0.15414032  0.59433771  0.25786300     0.14100
H655        H  0.11319207  0.59593850  0.21801934     0.16700
C656        C  0.18940200  0.58435616  0.25597061    -0.30900
H657        H  0.20427880  0.57338346  0.27699297     0.16700
H658        H  0.22669098  0.98153059  0.21692193     0.16600
H659        H  0.20416837  0.63679658  0.13104870     0.16800
H660        H  0.13337407  0.99463308  0.15246676     0.16700
C661        C  0.32885097  0.62845790  0.06684632     0.87100
C662        C  0.30363444  0.65059477  0.04507546    -0.53100
C663        C  0.27975146  0.67127151  0.06470527     0.10000
C664        C  0.28558637  0.66854311  0.10562449     0.21000
C665        C  0.35035927  0.65402081  0.09273969    -0.53900
C666        C  0.32806285  0.67490676  0.11441471     0.10100
C667        C  0.30328003  0.60853155  0.08977101    -0.53400
C668        C  0.28059584  0.62909785  0.11042885     0.10700
H669        H  0.30298486  0.64796985  0.01660209     0.15200
H670        H  0.26661196  0.68524090  0.12254263     0.00900
H671        H  0.37993969  0.65245349  0.09640766     0.15500
H672        H  0.30340456  0.58012497  0.09019788     0.15300
C673        C  0.10202201  0.62318775  0.33936722     0.87100
C674        C  0.07695290  0.64533214  0.31668110    -0.53100
C675        C  0.09626106  0.66077877  0.29129152     0.10000
C676        C  0.13723859  0.65277977  0.29125301     0.21000
C677        C  0.12124834  0.59720706  0.31291494    -0.53900
C678        C  0.13886031  0.61299528  0.28772764     0.10100
C679        C  0.13276030  0.64813850  0.35442371    -0.53400
C680        C  0.15158180  0.66367798  0.32860181     0.10700
H681        H  0.04709997  0.64613538  0.31852235     0.15200
H682        H  0.15222878  0.66465515  0.26972334     0.00900
H683        H  0.11956881  0.56880531  0.31280861     0.15500
H684        H  0.13925651  0.65181215  0.38209316     0.15300
C685        C  0.34048701  0.72513396  0.21780153     0.30600
C686        C  0.34051788  0.69314131  0.15065406     0.30600
C687        C  0.32367983  0.74571713  0.18930119    -0.05600
C688        C  0.38007088  0.71774272  0.20160152    -0.06400
C689        C  0.32425606  0.68860853  0.21330144    -0.06200
C690        C  0.32421523  0.72963865  0.15512924    -0.05600
C691        C  0.38007213  0.70058441  0.16684753    -0.06400
C692        C  0.32370188  0.67256667  0.17912314    -0.06300
C693        C  0.33253260  0.75591024  0.13375219    -0.31600
N694        N  0.33434874  0.78715697  0.15236603     0.14900
C695        C  0.33042496  0.78082194  0.18622664    -0.31600
H696        H  0.33815698  0.79944070  0.20770408     0.16800
C697        C  0.41677887  0.69566714  0.15731987    -0.30600
N698        N  0.43875181  0.70936723  0.18408595     0.13600
C699        C  0.41680194  0.72293217  0.21095909    -0.30600
C700        C  0.33031156  0.63743115  0.18213516    -0.30900
N701        N  0.33416868  0.63102479  0.21597884     0.14100
H702        H  0.33796312  0.61879864  0.16063596     0.16700
C703        C  0.33252199  0.66226722  0.23463580    -0.30900
H704        H  0.34398886  0.66630050  0.26066112     0.16700
H705        H  0.42688255  0.73516356  0.23562047     0.16700
H706        H  0.34402003  0.75177653  0.10774937     0.16800
H707        H  0.42683446  0.68356634  0.13258602     0.16700
C708        C  0.31788129  0.86570114  0.10088954     0.87100
C709        C  0.28580924  0.88137154  0.12482549    -0.53100
C710        C  0.26521476  0.85589762  0.13963415     0.10000
C711        C  0.27911619  0.81839582  0.12845194     0.21000
C712        C  0.34045965  0.84239559  0.12407701    -0.53900
C713        C  0.31963685  0.81768000  0.13835891     0.10100
C714        C  0.29907550  0.83985626  0.07366259    -0.53400
C715        C  0.27938136  0.81493732  0.08835044     0.10700
H716        H  0.28022832  0.90919234  0.12909063     0.15200
H717        H  0.26326015  0.79701024  0.13958680     0.00900
H718        H  0.37029902  0.84323047  0.12633307     0.15500
H719        H  0.30268969  0.83995962  0.04540645     0.15300
C720        C  0.31702668  0.55265238  0.26745225     0.87100
C721        C  0.28511483  0.53700052  0.24336220    -0.53100
C722        C  0.26468849  0.56248575  0.22837935     0.10000
C723        C  0.27860819  0.59997945  0.23951438     0.21000
C724        C  0.33984532  0.57582621  0.24436458    -0.53900
C725        C  0.31921851  0.60056706  0.22989297     0.10100
C726        C  0.29806660  0.57860282  0.29450141    -0.53400
C727        C  0.27853940  0.60352565  0.27960482     0.10700
H728        H  0.27947604  0.50919262  0.23917953     0.15200
H729        H  0.26288619  0.62137163  0.22821620     0.00900
H730        H  0.36970099  0.57490702  0.24232396     0.15500
H731        H  0.30145748  0.57855735  0.32278728     0.15300
C732        C  0.23032756  0.85869670  0.16331338     0.30600
C733        C  0.16855058  0.84372031  0.20238485     0.30600
C734        C  0.23711567  0.84496103  0.19909804    -0.05600
C735        C  0.20597847  0.89023597  0.17345736    -0.06400
C736        C  0.20150181  0.83412248  0.14588497    -0.06200
C737        C  0.20646462  0.83348770  0.21675060    -0.05600
C738        C  0.17436588  0.88400598  0.19421145    -0.06400
C739        C  0.17045105  0.82615513  0.16573316    -0.06300
C740        C  0.21988872  0.80430781  0.23186759    -0.31600
N741        N  0.25713262  0.80471827  0.23262378     0.14900
C742        C  0.26769786  0.83041668  0.21258102    -0.31600
H743        H  0.29552406  0.83862448  0.20792536     0.16800
C744        C  0.15720301  0.91707567  0.19867669    -0.30600
N745        N  0.17638711  0.94073229  0.18039028     0.13600
C746        C  0.20582080  0.92413773  0.16504635    -0.30600
C747        C  0.14210935  0.82149803  0.14256743    -0.30900
N748        N  0.15462360  0.82454970  0.10992344     0.14100
H749        H  0.11356294  0.82302388  0.14967548     0.16700
C750        C  0.18995024  0.83426682  0.11191070    -0.30900
H751        H  0.20493383  0.84523452  0.09095751     0.16700
H752        H  0.22691944  0.93683708  0.15061359     0.16700
H753        H  0.20412951  0.78181515  0.23705450     0.16800
H754        H  0.13332734  0.92382220  0.21472128     0.16700
C755        C  0.10298916  0.79564886  0.02816162     0.87100
C756        C  0.07770983  0.77360381  0.05072692    -0.53100
C757        C  0.09679454  0.75818154  0.07629372     0.10000
C758        C  0.13779862  0.76610629  0.07658964     0.21000
C759        C  0.12203998  0.82165932  0.05468712    -0.53900
C760        C  0.13944197  0.80588694  0.08003328     0.10100
C761        C  0.13377866  0.77061826  0.01338939    -0.53400
C762        C  0.15239697  0.75511195  0.03936013     0.10700
H763        H  0.04787318  0.77283220  0.04866225     0.15200
H764        H  0.15263314  0.75424973  0.09823065     0.00900
H765        H  0.12041703  0.85005708  0.05469217     0.15500
H766        H  0.14040276  0.76687890  0.98576531     0.15300
C767        C  0.32844338  0.78975283  0.30166497     0.87100
C768        C  0.35007446  0.76417750  0.27584027    -0.53100
C769        C  0.32787272  0.74336881  0.25401559     0.10000
C770        C  0.28534960  0.74979226  0.26262783     0.21000
C771        C  0.30303302  0.80975621  0.27863349    -0.53900
C772        C  0.28045332  0.78925043  0.25783532     0.10100
C773        C  0.30307937  0.76764467  0.32327618    -0.53400
C774        C  0.27927018  0.74704768  0.30351952     0.10700
H775        H  0.37968020  0.76568520  0.27232532     0.15200
H776        H  0.26644403  0.73315079  0.24560236     0.00900
H777        H  0.30319908  0.83816448  0.27822977     0.15500
H778        H  0.30225076  0.77027914  0.35174283     0.15300
C779        C  0.18668020  0.73196027  0.03689411     0.30600
C780        C  0.24739359  0.69165937  0.04896627     0.30600
C781        C  0.17952438  0.69749486  0.05263799    -0.05600
C782        C  0.20938552  0.72066223  0.00397287    -0.06400
C783        C  0.21631987  0.74925303  0.06014403    -0.06200
C784        C  0.20951954  0.67679103  0.05855227    -0.05600
C785        C  0.24093320  0.69965315  0.00923851    -0.06400
C786        C  0.24712077  0.72891360  0.06665821    -0.06300
C787        C  0.19518915  0.64653438  0.07077319    -0.31600
N788        N  0.15841539  0.65102976  0.07734510     0.14900
C789        C  0.14854408  0.68067671  0.06280090    -0.31600
H790        H  0.12094470  0.68868190  0.05759039     0.16800
C791        C  0.25714982  0.69424673  0.47592760    -0.30600
N792        N  0.23727297  0.71206386  0.45247997     0.13600
C793        C  0.20840948  0.72796626  0.46956178    -0.30600
C794        C  0.27600275  0.75210319  0.07062708    -0.30900
N795        N  0.26382247  0.78521286  0.06877150     0.14100
H796        H  0.30447987  0.74471353  0.06857395     0.16700
C797        C  0.22811587  0.78325298  0.06000802    -0.30900
H798        H  0.21277610  0.80434395  0.04973885     0.16700
H799        H  0.18736228  0.74236340  0.45685493     0.16700
H800        H  0.21035811  0.62263139  0.07326422     0.16800
H801        H  0.28077321  0.67790404  0.46898438     0.16700
C802        C  0.18592132  0.68673079  0.33125246     0.30600
C803        C  0.24676897  0.72679475  0.31915013     0.30600
C804        C  0.17886060  0.72133590  0.31569376    -0.05600
C805        C  0.20878005  0.69776884  0.36415032    -0.06400
C806        C  0.21546744  0.66939413  0.30787352    -0.06200
C807        C  0.20893214  0.74190883  0.30974825    -0.05600
C808        C  0.24041523  0.71861533  0.35883840    -0.06400
C809        C  0.24627407  0.68964950  0.30127540    -0.06300
C810        C  0.19473719  0.77213957  0.29732672    -0.31600
N811        N  0.15796227  0.76777258  0.29072126     0.14900
C812        C  0.14795275  0.73823144  0.30539302    -0.31600
H813        H  0.12031325  0.73026575  0.31043863     0.16800
C814        C  0.25694346  0.72363044  0.39203307    -0.30600
N815        N  0.23715709  0.70577827  0.41549489     0.13600
C816        C  0.20802961  0.69021763  0.39851704    -0.30600
C817        C  0.27508771  0.66640349  0.29707414    -0.30900
N818        N  0.26288811  0.63333458  0.29898102     0.14100
H819        H  0.30356810  0.67373489  0.29898395     0.16700
C820        C  0.22722569  0.63535472  0.30791811    -0.30900
H821        H  0.21191015  0.61428620  0.31823172     0.16700
H822        H  0.18695256  0.67586170  0.41122876     0.16700
H823        H  0.21001012  0.79594231  0.29470831     0.16800
H824        H  0.28072981  0.73974511  0.39890998     0.16700
N825        N  0.49709349  0.52683929  0.47395174    -0.05500
N826        N  0.99873469  0.54866007  0.00270704    -0.57600
N827        N  0.02712160  0.00041567  0.39596445    -0.05200
N828        N  0.05703740  0.51527205  0.38397418    -0.59800
N829        N  0.49866354  0.52116323  0.39265861    -0.04800
N830        N  0.00835071  0.54952061  0.37774038    -0.57600
N831        N  0.02260291  0.00228061  0.47538725    -0.04500
N832        N  0.04193197  0.50702653  0.00472397    -0.60100
C833        C  0.02668910  0.53587753  0.02164807     0.96700
C834        C  0.04459175  0.54570420  0.37241977     0.96400
N835        N  0.49692209  0.89174454  0.39340163    -0.05700
N836        N  0.49833037  0.87000515  0.36454527    -0.58200
N837        N  0.02767771  0.91810247  0.47108149    -0.03800
N838        N  0.05781902  0.90323339  0.48262508    -0.59500
N839        N  0.49935702  0.89729587  0.47463366    -0.05700
N840        N  0.50932839  0.86888607  0.48931822    -0.58500
N841        N  0.02224344  0.91632404  0.39179683    -0.03500
N842        N  0.04128750  0.91171008  0.36227293    -0.59600
Mn843      Mn  0.02605016  0.95928401  0.43356261     1.18400
C844        C  0.02601527  0.88286780  0.34542919     0.98700
C845        C  0.04565887  0.87276803  0.99420913     0.99400
N846        N  0.41206273  0.51542171  0.38707497    -0.05800
N847        N  0.40843333  0.52917161  0.35638659    -0.62100
N848        N  0.38542010  0.50727644  0.47046098    -0.04600
N849        N  0.36261562  0.51938909  0.99566901    -0.62700
N850        N  0.41278861  0.52923959  0.46813148    -0.05300
N851        N  0.41003752  0.55616679  0.99132118    -0.62300
N852        N  0.38646860  0.49137035  0.38994027    -0.04200
N853        N  0.36538660  0.48802326  0.36180631    -0.63000
Mn854      Mn  0.45497609  0.52394267  0.42995708     1.10700
C855        C  0.37941731  0.51135932  0.34093362     1.00000
C856        C  0.37913117  0.54963502  0.00854155     1.00000
N857        N  0.41265282  0.90300851  0.48109201    -0.05300
N858        N  0.40928189  0.88928299  0.51182643    -0.60600
N859        N  0.38521651  0.91106244  0.39787952    -0.04600
N860        N  0.36216171  0.89884395  0.37293114    -0.57400
N861        N  0.41266781  0.88912807  0.40001908    -0.05900
N862        N  0.40973487  0.86212200  0.37693374    -0.60200
N863        N  0.38695595  0.92702324  0.47838808    -0.04900
N864        N  0.36608307  0.93037748  0.50667075    -0.57400
Mn865      Mn  0.45522782  0.89450978  0.43779693     1.20200
Mn866      Mn  0.38432839  0.95918282  0.43416422     1.10100
Cl867      Cl  0.45530140  0.95922655  0.43388463    -0.85400
C868        C  0.38032582  0.90709848  0.02748783     0.97000
C869        C  0.37861360  0.86856225  0.36001178     0.96800
C870        C  0.34970368  0.81541008  0.32288621    -0.12700
C871        C  0.36143970  0.84101295  0.33914108    -0.14200
C872        C  0.06807794  0.84229632  0.99578362    -0.12700
C873        C  0.08375726  0.81645085  0.00375699    -0.14200
C874        C  0.34087989  0.52948716  0.28648143    -0.12700
C875        C  0.36077121  0.51985666  0.30930221    -0.14200
C876        C  0.36180632  0.89851570  0.05918371    -0.12700
C877        C  0.34191159  0.88885601  0.08200334    -0.14200
C878        C  0.08252181  0.60227784  0.36347804    -0.12700
C879        C  0.06682171  0.57630750  0.37105580    -0.14200
C880        C  0.35023957  0.60274266  0.04579494    -0.12700
C881        C  0.36204515  0.57713880  0.02957277    -0.14200
C882        C  0.05684350  0.85163281  0.28783035    -0.12700
C883        C  0.04046955  0.86622212  0.31269693    -0.14200
C884        C  0.04111084  0.55251816  0.05440768    -0.12700
C885        C  0.05723988  0.56722385  0.07936383    -0.14200
C886        C  0.08271031  0.58904693  0.60237816     0.87100
C887        C  0.10903983  0.56890684  0.62581029    -0.53100
C888        C  0.13488635  0.58944361  0.64398708     0.10000
C889        C  0.12955159  0.62951455  0.63713201     0.21000
C890        C  0.06390115  0.61791350  0.62705171    -0.53900
C891        C  0.08773415  0.64019293  0.64547205     0.10100
C892        C  0.10831248  0.60867135  0.57881249    -0.53400
C893        C  0.13344671  0.62942505  0.59622762     0.10700
H894        H  0.10843021  0.54065004  0.62597324     0.15200
H895        H  0.14899289  0.64753815  0.65181780     0.00900
H896        H  0.03431234  0.62173562  0.62766866     0.15500
H897        H  0.10672994  0.60642334  0.55028412     0.15300
C898        C  0.07623331  0.67624419  0.66627873     0.30600
C899        C  0.07628622  0.74264966  0.70122930     0.30600
C900        C  0.09288912  0.70571767  0.64688858    -0.05600
C901        C  0.03671910  0.69243559  0.67444835    -0.06400
C902        C  0.09223624  0.67935207  0.70335119    -0.06200
C903        C  0.09229899  0.73951524  0.66416746    -0.05600
C904        C  0.03673585  0.72654028  0.69310581    -0.06400
C905        C  0.09292223  0.71315986  0.72060953    -0.06300
C906        C  0.08286811  0.76140903  0.63832504    -0.31600
N907        N  0.08074055  0.74377482  0.60635771     0.14900
C908        C  0.08520621  0.70981395  0.61202664    -0.31600
H909        H  0.07643238  0.68872432  0.59338017     0.16800
C910        C  0.99997756  0.73568441  0.69867804    -0.30600
N911        N  0.47803880  0.70942665  0.68397387     0.13600
C912        C  0.99996785  0.68321988  0.66915864    -0.30600
C913        C  0.08519034  0.70914189  0.75547118    -0.30900
N914        N  0.08048046  0.67522657  0.76115324     0.14100
H915        H  0.07640320  0.73028778  0.77405330     0.16700
C916        C  0.08263497  0.65754036  0.72921201    -0.30900
H917        H  0.07039245  0.63196690  0.72408313     0.16700
H918        H  0.48982655  0.65904133  0.65605065     0.16700
H919        H  0.07076094  0.78705504  0.64345770     0.16800
H920        H  0.48981575  0.75980606  0.71187567     0.16700
C921        C  0.08254224  0.82981028  0.76505921     0.87100
C922        C  0.10910123  0.84987171  0.74178459    -0.53100
C923        C  0.13503757  0.82925127  0.72377103     0.10000
C924        C  0.12957307  0.78920975  0.73066748     0.21000
C925        C  0.06387351  0.80099783  0.74029310    -0.53900
C926        C  0.08778515  0.77864896  0.72206618     0.10100
C927        C  0.10791602  0.81016228  0.78882777    -0.53400
C928        C  0.13315721  0.78934137  0.77161651     0.10700
H929        H  0.10852565  0.87812253  0.74158181     0.15200
H930        H  0.14907097  0.77111229  0.71612453     0.00900
H931        H  0.03428178  0.79727477  0.73946594     0.15500
H932        H  0.10611095  0.81245499  0.81734546     0.15300
C933        C  0.22987671  0.55972355  0.70465091     0.30600
C934        C  0.16828177  0.57485411  0.66542806     0.30600
C935        C  0.23682202  0.57344827  0.66890226    -0.05600
C936        C  0.20556351  0.52823765  0.69439659    -0.06400
C937        C  0.20102725  0.58433286  0.72201879    -0.06200
C938        C  0.20626549  0.58502940  0.65117765    -0.05600
C939        C  0.17403560  0.53452010  0.67353979    -0.06400
C940        C  0.17008075  0.59238590  0.70209462    -0.06300
C941        C  0.21983358  0.61421358  0.63617840    -0.31600
N942        N  0.25708441  0.61368561  0.63553196     0.14900
C943        C  0.26749643  0.58791592  0.65555404    -0.31600
H944        H  0.29528705  0.57964673  0.66032448     0.16800
C945        C  0.15709523  0.50137156  0.66871482    -0.30600
N946        N  0.17633390  0.97765613  0.68691409     0.13600
C947        C  0.20558462  0.99425947  0.70251835    -0.30600
C948        C  0.14169759  0.59727911  0.72518979    -0.30900
N949        N  0.15412852  0.59430113  0.75787703     0.14100
H950        H  0.11317778  0.59589917  0.71803562     0.16700
C951        C  0.18939437  0.58433287  0.75598071    -0.30900
H952        H  0.20427606  0.57335998  0.77699954     0.16700
H953        H  0.22669030  0.98152530  0.71692205     0.16600
H954        H  0.20415748  0.63679886  0.63105547     0.16800
H955        H  0.13336812  0.99462727  0.65247372     0.16700
C956        C  0.32884001  0.62845059  0.56685012     0.87100
C957        C  0.30362651  0.65059046  0.54507859    -0.53100
C958        C  0.27974628  0.67127057  0.56470890     0.10000
C959        C  0.28558006  0.66854088  0.60562781     0.21000
C960        C  0.35035083  0.65401102  0.59274330    -0.53900
C961        C  0.32805690  0.67490010  0.61441694     0.10100
C962        C  0.30326601  0.60852725  0.58977451    -0.53400
C963        C  0.28058436  0.62909620  0.61043232     0.10700
H964        H  0.30297684  0.64796585  0.51660510     0.15200
H965        H  0.26660776  0.68524066  0.62254624     0.00900
H966        H  0.37993081  0.65244061  0.59641187     0.15500
H967        H  0.30338750  0.58012068  0.59020209     0.15300
C968        C  0.10202046  0.62318460  0.83937755     0.87100
C969        C  0.07695539  0.64532594  0.81668653    -0.53100
C970        C  0.09626572  0.66076072  0.79129166     0.10000
C971        C  0.13724225  0.65275513  0.79125287     0.21000
C972        C  0.12124184  0.59719308  0.81293210    -0.53900
C973        C  0.13885672  0.61297005  0.78773920     0.10100
C974        C  0.13276279  0.64813348  0.85442660    -0.53400
C975        C  0.15158777  0.66366122  0.82859902     0.10700
H976        H  0.04710299  0.64613738  0.81853025     0.15200
H977        H  0.15223393  0.66462245  0.76971892     0.00900
H978        H  0.11955641  0.56879230  0.81283385     0.15500
H979        H  0.13925690  0.65181565  0.88209556     0.15300
C980        C  0.34048591  0.72512588  0.71780039     0.30600
C981        C  0.34051389  0.69313388  0.65065458     0.30600
C982        C  0.32367712  0.74570951  0.68930161    -0.05600
C983        C  0.38006894  0.71773519  0.70159949    -0.06400
C984        C  0.32425337  0.68860106  0.71330146    -0.06200
C985        C  0.32421040  0.72963094  0.65513004    -0.05600
C986        C  0.38006906  0.70057674  0.66684612    -0.06400
C987        C  0.32369884  0.67255912  0.67912376    -0.06300
C988        C  0.33252547  0.75590234  0.63375224    -0.31600
N989        N  0.33434404  0.78714897  0.65236629     0.14900
C990        C  0.33042221  0.78081420  0.68622694    -0.31600
H991        H  0.33815654  0.79943283  0.70770425     0.16800
C992        C  0.41677589  0.69566047  0.65731719    -0.30600
N993        N  0.43874956  0.70936195  0.68408246     0.13600
C994        C  0.41679992  0.72292642  0.71095572    -0.30600
C995        C  0.33030713  0.63742350  0.68213593    -0.30900
N996        N  0.33416181  0.63101706  0.71597981     0.14100
H997        H  0.33795800  0.61879050  0.66063685     0.16700
C998        C  0.33251551  0.66225969  0.73463679    -0.30900
H999        H  0.34398093  0.66629306  0.76066231     0.16700
H1000       H  0.42688085  0.73515857  0.73561691     0.16700
H1001       H  0.34401046  0.75176825  0.60774900     0.16800
H1002       H  0.42683067  0.68355960  0.63258355     0.16700
C1003       C  0.31788641  0.86569842  0.60089444     0.87100
C1004       C  0.28581449  0.88136966  0.62483198    -0.53100
C1005       C  0.26521677  0.85589547  0.63963802     0.10000
C1006       C  0.27911565  0.81839380  0.62845240     0.21000
C1007       C  0.34046174  0.84238876  0.62408038    -0.53900
C1008       C  0.31963600  0.81767386  0.63835985     0.10100
C1009       C  0.29907825  0.83985727  0.57366570    -0.53400
C1010       C  0.27938158  0.81493883  0.58835101     0.10700
H1011       H  0.28023572  0.90919108  0.62909954     0.15200
H1012       H  0.26325764  0.79700802  0.63958461     0.00900
H1013       H  0.37030149  0.84322104  0.62633751     0.15500
H1014       H  0.30269364  0.83996189  0.54540958     0.15300
C1015       C  0.31702752  0.55263213  0.76743899     0.87100
C1016       C  0.28511208  0.53698707  0.74335144    -0.53100
C1017       C  0.26468331  0.56247678  0.72837958     0.10000
C1018       C  0.27860500  0.59996839  0.73952051     0.21000
C1019       C  0.33984302  0.57581158  0.74435416    -0.53900
C1020       C  0.31921392  0.60055770  0.72989305     0.10100
C1021       C  0.29807333  0.57857724  0.79449765    -0.53400
C1022       C  0.27854400  0.60350503  0.77961060     0.10700
H1023       H  0.27947381  0.50917949  0.73916205     0.15200
H1024       H  0.26288054  0.62136364  0.72823019     0.00900
H1025       H  0.36969829  0.57489044  0.74230690     0.15500
H1026       H  0.30147014  0.57852491  0.82278204     0.15300
C1027       C  0.23032898  0.85869254  0.66331789     0.30600
C1028       C  0.16855165  0.84371478  0.70238937     0.30600
C1029       C  0.23711677  0.84495107  0.69909983    -0.05600
C1030       C  0.20598239  0.89023212  0.67346734    -0.06400
C1031       C  0.20149992  0.83412266  0.64588674    -0.06200
C1032       C  0.20646579  0.83347747  0.71675156    -0.05600
C1033       C  0.17436951  0.88400154  0.69422096    -0.06400
C1034       C  0.17044751  0.82615652  0.66573436    -0.06300
C1035       C  0.21988991  0.80429902  0.73187055    -0.31600
N1036       N  0.25713374  0.80471154  0.73262947     0.14900
C1037       C  0.26769911  0.83040941  0.71258577    -0.31600
H1038       H  0.29552558  0.83861813  0.70793109     0.16800
C1039       C  0.15720357  0.91707011  0.69868227    -0.30600
N1040       N  0.17638623  0.94072632  0.68039404     0.13600
C1041       C  0.20582170  0.92413243  0.66505262    -0.30600
C1042       C  0.14210319  0.82151579  0.64256867    -0.30900
N1043       N  0.15461650  0.82457151  0.60992509     0.14100
H1044       H  0.11355641  0.82305037  0.64967765     0.16700
C1045       C  0.18994687  0.83427700  0.61191346    -0.30900
H1046       H  0.20493333  0.84524446  0.59096212     0.16700
H1047       H  0.22691793  0.93683093  0.65061692     0.16700
H1048       H  0.20413089  0.78180532  0.73705691     0.16800
H1049       H  0.13332510  0.92381557  0.71472337     0.16700
C1050       C  0.10297896  0.79564434  0.52817237     0.87100
C1051       C  0.07770628  0.77360236  0.55074525    -0.53100
C1052       C  0.09679656  0.75818944  0.57631341     0.10000
C1053       C  0.13779966  0.76611878  0.57660394     0.21000
C1054       C  0.12202955  0.82166379  0.55468954    -0.53900
C1055       C  0.13943810  0.80590024  0.58003787     0.10100
C1056       C  0.13376901  0.77061428  0.51340189    -0.53400
C1057       C  0.15239367  0.75511688  0.53937440     0.10700
H1058       H  0.04787005  0.77282396  0.54868238     0.15200
H1059       H  0.15263815  0.75426850  0.59824657     0.00900
H1060       H  0.12040061  0.85006104  0.55468834     0.15500
H1061       H  0.14038622  0.76686648  0.48577635     0.15300
C1062       C  0.32844719  0.78973828  0.80166700     0.87100
C1063       C  0.35007718  0.76416683  0.77583847    -0.53100
C1064       C  0.32787428  0.74336033  0.75401343     0.10000
C1065       C  0.28535217  0.74978203  0.76262679     0.21000
C1066       C  0.30303490  0.80974515  0.77863991    -0.53900
C1067       C  0.28045463  0.78924143  0.75783978     0.10100
C1068       C  0.30308524  0.76762578  0.82327542    -0.53400
C1069       C  0.27927614  0.74703047  0.80351687     0.10700
H1070       H  0.37968255  0.76567445  0.77232289     0.15200
H1071       H  0.26644660  0.73314192  0.74560019     0.00900
H1072       H  0.30320159  0.83815366  0.77823935     0.15500
H1073       H  0.30225794  0.77025649  0.85174208     0.15300
C1074       C  0.18667585  0.73196414  0.53690768     0.30600
C1075       C  0.24738927  0.69166122  0.54897222     0.30600
C1076       C  0.17952068  0.69749949  0.55265324    -0.05600
C1077       C  0.20937725  0.72066575  0.50398347    -0.06400
C1078       C  0.21631841  0.74925617  0.56015446    -0.06200
C1079       C  0.20951574  0.67679426  0.55856286    -0.05600
C1080       C  0.24092492  0.69965555  0.50924523    -0.06400
C1081       C  0.24712067  0.72891630  0.56666353    -0.06300
C1082       C  0.19518560  0.64653530  0.57077998    -0.31600
N1083       N  0.15841202  0.65102963  0.57735390     0.14900
C1084       C  0.14854067  0.68067965  0.56281489    -0.31600
H1085       H  0.12094152  0.68868452  0.55760394     0.16800
C1086       C  0.25715776  0.69423820  0.97592145    -0.30600
N1087       N  0.23727978  0.71204998  0.95247070     0.13600
C1088       C  0.20841609  0.72795490  0.96954936    -0.30600
C1089       C  0.27600360  0.75210621  0.57062377    -0.30900
N1090       N  0.26382270  0.78521596  0.56876973     0.14100
H1091       H  0.30448048  0.74471679  0.56856297     0.16700
C1092       C  0.22811392  0.78325595  0.56001526    -0.30900
H1093       H  0.21277199  0.80434634  0.54974843     0.16700
H1094       H  0.18736663  0.74234658  0.95683948     0.16700
H1095       H  0.21035474  0.62263161  0.57326819     0.16800
H1096       H  0.28077941  0.67789348  0.96898037     0.16700
C1097       C  0.18592870  0.68671188  0.83124481     0.30600
C1098       C  0.24677685  0.72677427  0.81914431     0.30600
C1099       C  0.17886957  0.72131512  0.81568293    -0.05600
C1100       C  0.20878637  0.69775130  0.86414315    -0.06400
C1101       C  0.21547530  0.66937312  0.80786764    -0.06200
C1102       C  0.20894146  0.74188769  0.80973956    -0.05600
C1103       C  0.24042143  0.71859733  0.85883157    -0.06400
C1104       C  0.24628436  0.68962732  0.80127206    -0.06300
C1105       C  0.19474777  0.77212263  0.79732640    -0.31600
N1106       N  0.15797265  0.76775854  0.79072151     0.14900
C1107       C  0.14796228  0.73821437  0.80538725    -0.31600
H1108       H  0.12032314  0.73025130  0.81043632     0.16800
C1109       C  0.25695120  0.72361168  0.89202483    -0.30600
N1110       N  0.23716588  0.70575949  0.91548646     0.13600
C1111       C  0.20803804  0.69019854  0.89850936    -0.30600
C1112       C  0.27509855  0.66637985  0.79708508    -0.30900
N1113       N  0.26289815  0.63331156  0.79899509     0.14100
H1114       H  0.30357893  0.67371086  0.79900541     0.16700
C1115       C  0.22723267  0.63533407  0.80792047    -0.30900
H1116       H  0.21191425  0.61426843  0.81823433     0.16700
H1117       H  0.18696254  0.67584209  0.91122167     0.16700
H1118       H  0.21002150  0.79592584  0.79471307     0.16800
H1119       H  0.28073853  0.73972565  0.89890148     0.16700
N1120       N  0.49708553  0.52685576  0.97392594    -0.05500
N1121       N  0.99873035  0.54863720  0.50273023    -0.57600
N1122       N  0.02711727  0.00041827  0.89594329    -0.05200
N1123       N  0.05703164  0.51527639  0.88395339    -0.59800
N1124       N  0.49864949  0.52115143  0.89262831    -0.04800
N1125       N  0.00834206  0.54951814  0.87771148    -0.57600
N1126       N  0.02260857  0.00230231  0.97536711    -0.04500
N1127       N  0.04192495  0.50700101  0.50474555    -0.60100
C1128       C  0.02668219  0.53585137  0.52167140     0.96700
C1129       C  0.04458431  0.54570642  0.87239643     0.96400
N1130       N  0.49691983  0.89173834  0.89341343    -0.05700
N1131       N  0.49832752  0.86999350  0.86456088    -0.58200
N1132       N  0.02769247  0.91812332  0.97107747    -0.03800
N1133       N  0.05783889  0.90325375  0.98261052    -0.59500
N1134       N  0.49936240  0.89731415  0.97464573    -0.05700
N1135       N  0.50934209  0.86890928  0.98933483    -0.58500
N1136       N  0.02224678  0.91632940  0.89179663    -0.03500
N1137       N  0.04129103  0.91170938  0.86227374    -0.59600
Mn1138     Mn  0.02605403  0.95929747  0.93355119     1.18400
C1139       C  0.02602261  0.88286105  0.84543868     0.98700
C1140       C  0.04563377  0.87274714  0.49421838     0.99400
N1141       N  0.41205417  0.51540396  0.88705059    -0.05800
N1142       N  0.40842753  0.52914378  0.85635713    -0.62100
N1143       N  0.38541182  0.50728352  0.97044023    -0.04600
N1144       N  0.36262155  0.51937792  0.49568929    -0.62700
N1145       N  0.41277824  0.52924770  0.96810258    -0.05300
N1146       N  0.41004747  0.55615324  0.49135661    -0.62300
N1147       N  0.38646163  0.49135224  0.88992103    -0.04200
N1148       N  0.36538295  0.48799508  0.86178497    -0.63000
Mn1149     Mn  0.45496578  0.52394138  0.92993005     1.10700
C1150       C  0.37941526  0.51132516  0.84090603     1.00000
C1151       C  0.37913800  0.54961967  0.50857186     1.00000
N1152       N  0.41265460  0.90302167  0.98110268    -0.05300
N1153       N  0.40928204  0.88930064  0.01183882    -0.60600
N1154       N  0.38521587  0.91104754  0.89788700    -0.04600
N1155       N  0.36216296  0.89882191  0.87294009    -0.57400
N1156       N  0.41266595  0.88911336  0.90003662    -0.05900
N1157       N  0.40973287  0.86209893  0.87696107    -0.60200
N1158       N  0.38695516  0.92703273  0.97839160    -0.04900
N1159       N  0.36607872  0.93038889  0.00667171    -0.57400
Mn1160     Mn  0.45522895  0.89451253  0.93781081     1.20200
Mn1161     Mn  0.38432354  0.95917881  0.93415686     1.10100
Cl1162     Cl  0.45529507  0.95922739  0.93387813    -0.85400
C1163       C  0.38032875  0.90708148  0.52748130     0.97000
C1164       C  0.37861399  0.86853549  0.86003351     0.96800
C1165       C  0.34970971  0.81539077  0.82289168    -0.12700
C1166       C  0.36144701  0.84098849  0.83915402    -0.14200
C1167       C  0.06805175  0.84227602  0.49579322    -0.12700
C1168       C  0.08373812  0.81643478  0.50376563    -0.14200
C1169       C  0.34087990  0.52945796  0.78645681    -0.12700
C1170       C  0.36076924  0.51981993  0.80927462    -0.14200
C1171       C  0.36181532  0.89850281  0.55918299    -0.12700
C1172       C  0.34192091  0.88884992  0.58200706    -0.14200
C1173       C  0.08251450  0.60228634  0.86349264    -0.12700
C1174       C  0.06680946  0.57631468  0.87105724    -0.14200
C1175       C  0.35022900  0.60273289  0.54580260    -0.12700
C1176       C  0.36204188  0.57712662  0.52959028    -0.14200
C1177       C  0.05685420  0.85162122  0.78784582    -0.12700
C1178       C  0.04047801  0.86621021  0.81271044    -0.14200
C1179       C  0.04111099  0.55249868  0.55442424    -0.12700
C1180       C  0.05723989  0.56721467  0.57937434    -0.14200
C1181       C  0.58270344  0.08907960  0.10236189     0.87100
C1182       C  0.60902544  0.06892627  0.12579782    -0.53100
C1183       C  0.63488378  0.08945117  0.14397782     0.10000
C1184       C  0.62956572  0.12952705  0.13711436     0.21000
C1185       C  0.56391064  0.11795195  0.12703418    -0.53900
C1186       C  0.58775212  0.14021930  0.14545319     0.10100
C1187       C  0.60831581  0.10869419  0.07879492    -0.53400
C1188       C  0.63345946  0.12944189  0.09620650     0.10700
H1189       H  0.60840024  0.04066929  0.12596588     0.15200
H1190       H  0.64900874  0.14754761  0.15180191     0.00900
H1191       H  0.53432434  0.12178801  0.12764886     0.15500
H1192       H  0.60672808  0.10644770  0.05026684     0.15300
C1193       C  0.57625518  0.17626929  0.16625475     0.30600
C1194       C  0.57628785  0.24266921  0.20120002     0.30600
C1195       C  0.59290061  0.20574501  0.14685903    -0.05600
C1196       C  0.53673605  0.19244883  0.17442592    -0.06400
C1197       C  0.59226296  0.17937886  0.20332466    -0.06200
C1198       C  0.59229604  0.23954331  0.16413436    -0.05600
C1199       C  0.53674483  0.22655301  0.19308040    -0.06400
C1200       C  0.59293577  0.21318491  0.22058281    -0.06300
C1201       C  0.58284593  0.26142954  0.13828821    -0.31600
N1202       N  0.58072770  0.24379165  0.10632138     0.14900
C1203       C  0.58521072  0.20983428  0.11199659    -0.31600
H1204       H  0.57644509  0.18873901  0.09335357     0.16800
C1205       C  0.49998761  0.23569323  0.19865321    -0.30600
N1206       N  0.97802801  0.20942261  0.18399472     0.13600
C1207       C  0.49998597  0.18322620  0.16913957    -0.30600
C1208       C  0.58520873  0.20916251  0.25544641    -0.30900
N1209       N  0.58051123  0.17524469  0.26112772     0.14100
H1210       H  0.57641719  0.23030507  0.27402971     0.16700
C1211       C  0.58267439  0.15756140  0.22918527    -0.30900
H1212       H  0.57043124  0.13198896  0.22405288     0.16700
H1213       H  0.98981095  0.15903454  0.15607497     0.16700
H1214       H  0.57073047  0.28707335  0.14341659     0.16800
H1215       H  0.98980951  0.25980417  0.21189094     0.16700
C1216       C  0.58252736  0.32983080  0.26501974     0.87100
C1217       C  0.60909852  0.34987638  0.24174730    -0.53100
C1218       C  0.63503309  0.32924636  0.22374647     0.10000
C1219       C  0.62955921  0.28921038  0.23065215     0.21000
C1220       C  0.56385866  0.30101858  0.24025365    -0.53900
C1221       C  0.58777426  0.27866358  0.22203837     0.10100
C1222       C  0.60788631  0.31017824  0.28880156    -0.53400
C1223       C  0.63312676  0.28934288  0.27160314     0.10700
H1224       H  0.60853113  0.37812592  0.24153863     0.15200
H1225       H  0.64905453  0.27110551  0.21611586     0.00900
H1226       H  0.53426650  0.29730275  0.23941626     0.15500
H1227       H  0.60607375  0.31248328  0.31731841     0.15300
C1228       C  0.72987242  0.05971626  0.20466805     0.30600
C1229       C  0.66827246  0.07484723  0.16543567     0.30600
C1230       C  0.73681641  0.07342788  0.16891233    -0.05600
C1231       C  0.70554924  0.02823122  0.19442362    -0.06400
C1232       C  0.70102393  0.08433395  0.22202898    -0.06200
C1233       C  0.70625988  0.08500398  0.15118213    -0.05600
C1234       C  0.67401728  0.03451565  0.17356816    -0.06400
C1235       C  0.67007784  0.09238868  0.20209996    -0.06300
C1236       C  0.71982531  0.11418231  0.13617120    -0.31600
N1237       N  0.75707609  0.11367039  0.13554141     0.14900
C1238       C  0.76748950  0.08790405  0.15556818    -0.31600
H1239       H  0.79528213  0.07964490  0.16034767     0.16800
C1240       C  0.65707775  0.00136740  0.16874086    -0.30600
N1241       N  0.67632632  0.47764471  0.18692311     0.13600
C1242       C  0.70557932  0.49424672  0.20252863    -0.30600
C1243       C  0.64169250  0.09727634  0.22519427    -0.30900
N1244       N  0.65411827  0.09429458  0.25788283     0.14100
H1245       H  0.61317424  0.09588258  0.21803710     0.16700
C1246       C  0.68938554  0.08433146  0.25599009    -0.30900
H1247       H  0.70426585  0.07336117  0.27701226     0.16700
H1248       H  0.72669588  0.48150988  0.21691678     0.16600
H1249       H  0.70414474  0.13675764  0.13103174     0.16800
H1250       H  0.63335394  0.49462689  0.15249245     0.16700
C1251       C  0.82884254  0.12844216  0.06687373     0.87100
C1252       C  0.80362794  0.15058129  0.04509475    -0.53100
C1253       C  0.77974673  0.17127166  0.06471908     0.10000
C1254       C  0.78557136  0.16853772  0.10563860     0.21000
C1255       C  0.85034514  0.15401053  0.09276468    -0.53900
C1256       C  0.82804709  0.17490653  0.11442664     0.10100
C1257       C  0.80326790  0.10852207  0.08979787    -0.53400
C1258       C  0.78057938  0.12908907  0.11044788     0.10700
H1259       H  0.80298888  0.14796009  0.01662093     0.15200
H1260       H  0.76659678  0.18523770  0.12255434     0.00900
H1261       H  0.87992433  0.15244215  0.09643985     0.15500
H1262       H  0.80339362  0.08011587  0.09023083     0.15300
C1263       C  0.60199718  0.12319784  0.33937065     0.87100
C1264       C  0.57694994  0.14535022  0.31666949    -0.53100
C1265       C  0.59627619  0.16077719  0.29127785     0.10000
C1266       C  0.63724774  0.15275612  0.29125544     0.21000
C1267       C  0.62121349  0.09719859  0.31292936    -0.53900
C1268       C  0.63884535  0.11296898  0.28774196     0.10100
C1269       C  0.63275001  0.14813450  0.35442893    -0.53400
C1270       C  0.65158428  0.16366220  0.32860753     0.10700
H1271       H  0.54709699  0.14617070  0.31850293     0.15200
H1272       H  0.65225054  0.16461772  0.26972503     0.00900
H1273       H  0.61951474  0.06879839  0.31283086     0.15500
H1274       H  0.63924216  0.15181884  0.38210034     0.15300
C1275       C  0.84047288  0.22514029  0.21779588     0.30600
C1276       C  0.84050295  0.19315230  0.15065640     0.30600
C1277       C  0.82368230  0.24573558  0.18929755    -0.05600
C1278       C  0.88005709  0.21773821  0.20160656    -0.06400
C1279       C  0.82422680  0.18862530  0.21329668    -0.06200
C1280       C  0.82421921  0.22966041  0.15512474    -0.05600
C1281       C  0.88005897  0.20057793  0.16685511    -0.06400
C1282       C  0.82367036  0.17258495  0.17912095    -0.06300
C1283       C  0.83256788  0.25593377  0.13375697    -0.31600
N1284       N  0.83439516  0.28717920  0.15237564     0.14900
C1285       C  0.83045460  0.28083734  0.18623208    -0.31600
H1286       H  0.83818258  0.29945086  0.20771606     0.16800
C1287       C  0.91676706  0.19565636  0.15733288    -0.30600
N1288       N  0.93873865  0.20936030  0.18409947     0.13600
C1289       C  0.91678657  0.22292947  0.21096797    -0.30600
C1290       C  0.83027314  0.13744895  0.18213386    -0.30900
N1291       N  0.83413726  0.13104535  0.21597595     0.14100
H1292       H  0.83792817  0.11881586  0.16063664     0.16700
C1293       C  0.83248984  0.16228595  0.23463269    -0.30900
H1294       H  0.84396988  0.16632082  0.26065282     0.16700
H1295       H  0.92686513  0.23516545  0.23562897     0.16700
H1296       H  0.84406148  0.25179882  0.10775593     0.16800
H1297       H  0.92682427  0.18355431  0.13260076     0.16700
C1298       C  0.81790241  0.36572877  0.10091392     0.87100
C1299       C  0.78580927  0.38137802  0.12483429    -0.53100
C1300       C  0.76522201  0.35589342  0.13963203     0.10000
C1301       C  0.77915306  0.31840107  0.12845897     0.21000
C1302       C  0.84048709  0.34243570  0.12411005    -0.53900
C1303       C  0.81967282  0.31770401  0.13837839     0.10100
C1304       C  0.79912439  0.33987031  0.07367845    -0.53400
C1305       C  0.77943402  0.31494308  0.08836040     0.10700
H1306       H  0.78020781  0.40919512  0.12909362     0.15200
H1307       H  0.76330320  0.29700767  0.13958693     0.00900
H1308       H  0.87032545  0.34328756  0.12637708     0.15500
H1309       H  0.80274365  0.33997982  0.04542337     0.15300
C1310       C  0.81705075  0.05267865  0.26745995     0.87100
C1311       C  0.78513478  0.03700878  0.24337821    -0.53100
C1312       C  0.76468844  0.06248239  0.22839471     0.10000
C1313       C  0.77859798  0.09998004  0.23951853     0.21000
C1314       C  0.83985000  0.07585809  0.24436484    -0.53900
C1315       C  0.81920583  0.10058360  0.22989223     0.10100
C1316       C  0.79808402  0.07862631  0.29450808    -0.53400
C1317       C  0.77853542  0.10353286  0.27960633     0.10700
H1318       H  0.77950181  0.00919859  0.23920596     0.15200
H1319       H  0.76286553  0.12136535  0.22821928     0.00900
H1320       H  0.86970603  0.07495361  0.24231752     0.15500
H1321       H  0.80148530  0.07859224  0.32279335     0.15300
C1322       C  0.73032293  0.35867791  0.16329758     0.30600
C1323       C  0.66854698  0.34369915  0.20236344     0.30600
C1324       C  0.73710794  0.34495377  0.19908598    -0.05600
C1325       C  0.70596289  0.39021420  0.17342744    -0.06400
C1326       C  0.70150998  0.33408775  0.14587101    -0.06200
C1327       C  0.70645714  0.33347657  0.21673766    -0.05600
C1328       C  0.67434848  0.38398106  0.19417531    -0.06400
C1329       C  0.67045523  0.32612094  0.16572065    -0.06300
C1330       C  0.71987842  0.30428315  0.23183464    -0.31600
N1331       N  0.75712180  0.30468410  0.23257808     0.14900
C1332       C  0.76768669  0.33039100  0.21254849    -0.31600
H1333       H  0.79551238  0.33860620  0.20790232     0.16800
C1334       C  0.65718616  0.41705044  0.19864880    -0.30600
N1335       N  0.67638008  0.44071585  0.18038316     0.13600
C1336       C  0.70581552  0.42412403  0.16503795    -0.30600
C1337       C  0.64210826  0.32149147  0.14256206    -0.30900
N1338       N  0.65461614  0.32456684  0.10992330     0.14100
H1339       H  0.61356298  0.32303419  0.14967681     0.16700
C1340       C  0.68994985  0.33425535  0.11190301    -0.30900
H1341       H  0.70492505  0.34524230  0.09095604     0.16700
H1342       H  0.72692228  0.43683019  0.15062246     0.16700
H1343       H  0.70411633  0.28179305  0.23702756     0.16800
H1344       H  0.63331418  0.42379558  0.21469841     0.16700
C1345       C  0.60298854  0.29569361  0.02816671     0.87100
C1346       C  0.57771046  0.27363380  0.05071701    -0.53100
C1347       C  0.59679283  0.25820472  0.07627956     0.10000
C1348       C  0.63779588  0.26613569  0.07658479     0.21000
C1349       C  0.62202710  0.32169661  0.05470274    -0.53900
C1350       C  0.63942971  0.30591469  0.08003813     0.10100
C1351       C  0.63379251  0.27067536  0.01338988    -0.53400
C1352       C  0.65241043  0.25515994  0.03935926     0.10700
H1353       H  0.54787427  0.27286375  0.04865140     0.15200
H1354       H  0.65262746  0.25427586  0.09822573     0.00900
H1355       H  0.62040318  0.35009592  0.05472038     0.15500
H1356       H  0.64042261  0.26694726  0.98576599     0.15300
C1357       C  0.82843026  0.28976279  0.30163023     0.87100
C1358       C  0.85006085  0.26417836  0.27581977    -0.53100
C1359       C  0.82785955  0.24336254  0.25400573     0.10000
C1360       C  0.78533660  0.24978240  0.26261058     0.21000
C1361       C  0.80302033  0.30975188  0.27858681    -0.53900
C1362       C  0.78043983  0.28923404  0.25779978     0.10100
C1363       C  0.80306343  0.26766262  0.32325066    -0.53400
C1364       C  0.77925577  0.24705334  0.30350175     0.10700
H1365       H  0.87966453  0.26569247  0.27229660     0.15200
H1366       H  0.76643372  0.23313285  0.24558983     0.00900
H1367       H  0.80318890  0.33815833  0.27816616     0.15500
H1368       H  0.80223549  0.27030913  0.35171704     0.15300
C1369       C  0.68670036  0.23200810  0.03690152     0.30600
C1370       C  0.74740517  0.19169094  0.04897825     0.30600
C1371       C  0.67953309  0.19752480  0.05261629    -0.05600
C1372       C  0.70942765  0.22073809  0.00398563    -0.06400
C1373       C  0.71633298  0.24928637  0.06017817    -0.06200
C1374       C  0.70952483  0.17681861  0.05853225    -0.05600
C1375       C  0.74097196  0.19972477  0.00925348    -0.06400
C1376       C  0.74712680  0.22893371  0.06670071    -0.06300
C1377       C  0.69519799  0.14656484  0.07076301    -0.31600
N1378       N  0.65842184  0.15105206  0.07732749     0.14900
C1379       C  0.64855156  0.18070105  0.06277928    -0.31600
H1380       H  0.62095252  0.18871069  0.05757494     0.16800
C1381       C  0.75720010  0.19432478  0.47593987    -0.30600
N1382       N  0.73732218  0.21213480  0.45248468     0.13600
C1383       C  0.70845944  0.22803965  0.46956781    -0.30600
C1384       C  0.77602008  0.25211071  0.07066730    -0.30900
N1385       N  0.76386569  0.28522358  0.06878175     0.14100
H1386       H  0.80449236  0.24470328  0.06860816     0.16700
C1387       C  0.72815656  0.28327794  0.06002258    -0.30900
H1388       H  0.71283423  0.30436894  0.04973407     0.16700
H1389       H  0.68740358  0.24242435  0.45685839     0.16700
H1390       H  0.71037415  0.12266855  0.07326624     0.16800
H1391       H  0.78081323  0.17796856  0.46899824     0.16700
C1392       C  0.68592157  0.18672350  0.33126215     0.30600
C1393       C  0.74675958  0.22679382  0.31913639     0.30600
C1394       C  0.67884740  0.22133783  0.31571927    -0.05600
C1395       C  0.70880700  0.19775058  0.36415361    -0.06400
C1396       C  0.71545360  0.16939636  0.30785979    -0.06200
C1397       C  0.70891556  0.24190966  0.30975820    -0.05600
C1398       C  0.74043384  0.21860309  0.35882500    -0.06400
C1399       C  0.74625601  0.18965394  0.30125081    -0.06300
C1400       C  0.69471853  0.27212914  0.29731345    -0.31600
N1401       N  0.65794094  0.26776398  0.29072093     0.14900
C1402       C  0.64793557  0.23822889  0.30541172    -0.31600
H1403       H  0.62029741  0.23025746  0.31045555     0.16800
C1404       C  0.75696693  0.22365038  0.39201526    -0.30600
N1405       N  0.73719098  0.20581691  0.41549950     0.13600
C1406       C  0.70806489  0.19023113  0.39853423    -0.30600
C1407       C  0.77507025  0.16640963  0.29705078    -0.30900
N1408       N  0.76287664  0.13334191  0.29897097     0.14100
H1409       H  0.80354957  0.17374375  0.29897316     0.16700
C1410       C  0.72721378  0.13535802  0.30790254    -0.30900
H1411       H  0.71190579  0.11429234  0.31822864     0.16700
H1412       H  0.68698545  0.17588835  0.41125977     0.16700
H1413       H  0.70999287  0.29592585  0.29467372     0.16800
H1414       H  0.78074267  0.23978507  0.39887592     0.16700
N1415       N  0.99713623  0.02682529  0.47394412    -0.05500
N1416       N  0.49866304  0.04867699  0.00270827    -0.57600
N1417       N  0.52710467  0.50043088  0.39597492    -0.05200
N1418       N  0.55701498  0.01530100  0.38399038    -0.59800
N1419       N  0.99869190  0.02116307  0.39265731    -0.04800
N1420       N  0.50831104  0.04952492  0.37774345    -0.57600
N1421       N  0.52257449  0.50230872  0.47540108    -0.04500
N1422       N  0.54188616  0.00707072  0.00473884    -0.60100
C1423       C  0.52662489  0.03591611  0.02165694     0.96700
C1424       C  0.54455551  0.04572669  0.37243302     0.96400
N1425       N  0.99689750  0.39171874  0.39343127    -0.05700
N1426       N  0.99831562  0.36995318  0.36459423    -0.58200
N1427       N  0.52766058  0.41812893  0.47110888    -0.03800
N1428       N  0.55778627  0.40329633  0.48272995    -0.59500
N1429       N  0.99936280  0.39729162  0.47465153    -0.05700
N1430       N  0.00934753  0.36886205  0.48929659    -0.58500
N1431       N  0.52227970  0.41634266  0.39179290    -0.03500
N1432       N  0.54132327  0.41174666  0.36226470    -0.59600
Mn1433     Mn  0.52604794  0.45930468  0.43357722     1.18400
C1434       C  0.52603717  0.38292354  0.34539327     0.98700
C1435       C  0.54561544  0.37283223  0.99432170     0.99400
N1436       N  0.91210647  0.01543172  0.38706752    -0.05800
N1437       N  0.90850807  0.02917010  0.35636954    -0.62100
N1438       N  0.88543072  0.00728640  0.47046010    -0.04600
N1439       N  0.86265581  0.01937693  0.99570193    -0.62700
N1440       N  0.91280957  0.02924233  0.46814802    -0.05300
N1441       N  0.91008864  0.05614470  0.99138821    -0.62300
N1442       N  0.88650736  0.99138241  0.38991941    -0.04200
N1443       N  0.86545283  0.98802734  0.36176638    -0.63000
Mn1444     Mn  0.95500818  0.02394671  0.42996104     1.10700
C1445       C  0.87950488  0.01135524  0.34089573     1.00000
C1446       C  0.87918516  0.04960231  0.00861378     1.00000
N1447       N  0.91262848  0.40304963  0.48112224    -0.05300
N1448       N  0.90925707  0.38935454  0.51187143    -0.60600
N1449       N  0.88521355  0.41106614  0.39786879    -0.04600
N1450       N  0.86218090  0.39885471  0.37289595    -0.57400
N1451       N  0.91264134  0.38911214  0.40005028    -0.05900
N1452       N  0.90970990  0.36209643  0.37697415    -0.60200
N1453       N  0.88691713  0.42704539  0.47838663    -0.04900
N1454       N  0.86603287  0.43041452  0.50666307    -0.57400
Mn1455     Mn  0.95520993  0.39451230  0.43783194     1.20200
Mn1456     Mn  0.88432965  0.45919709  0.43414939     1.10100
Cl1457     Cl  0.95529992  0.45922760  0.43388856    -0.85400
C1458       C  0.88029908  0.40716883  0.02750966     0.97000
C1459       C  0.87861887  0.36855361  0.36000913     0.96800
C1460       C  0.84970100  0.31542743  0.32283716    -0.12700
C1461       C  0.86145566  0.34102067  0.33909832    -0.14200
C1462       C  0.56805085  0.34236926  0.99586740    -0.12700
C1463       C  0.58374653  0.31651228  0.00378616    -0.14200
C1464       C  0.84093167  0.02952870  0.28648254    -0.12700
C1465       C  0.86084644  0.01988807  0.30928165    -0.14200
C1466       C  0.86178686  0.39859712  0.05921487    -0.12700
C1467       C  0.84191437  0.38891044  0.08203859    -0.14200
C1468       C  0.58247500  0.10230557  0.36348350    -0.12700
C1469       C  0.56677186  0.07633911  0.37106852    -0.14200
C1470       C  0.85024688  0.10271559  0.04584183    -0.12700
C1471       C  0.86208456  0.07710763  0.02964361    -0.14200
C1472       C  0.55684625  0.35166771  0.28779175    -0.12700
C1473       C  0.54048832  0.36628255  0.31265531    -0.14200
C1474       C  0.54105074  0.05257756  0.05440934    -0.12700
C1475       C  0.55720453  0.06727303  0.07935806    -0.14200
C1476       C  0.58270959  0.08907083  0.60237239     0.87100
C1477       C  0.60903158  0.06892098  0.62580920    -0.53100
C1478       C  0.63488793  0.08944793  0.64398747     0.10000
C1479       C  0.62956843  0.12952324  0.63712175     0.21000
C1480       C  0.56391427  0.11794331  0.62704226    -0.53900
C1481       C  0.58775427  0.14021330  0.64545938     0.10100
C1482       C  0.60832037  0.10868527  0.57880306    -0.53400
C1483       C  0.63346245  0.12943642  0.59621341     0.10700
H1484       H  0.60840809  0.04066421  0.62597871     0.15200
H1485       H  0.64900967  0.14754539  0.65180927     0.00900
H1486       H  0.53432774  0.12177640  0.62765797     0.15500
H1487       H  0.60673219  0.10643628  0.55027474     0.15300
C1488       C  0.57625525  0.17626174  0.66626164     0.30600
C1489       C  0.57628523  0.24265873  0.70121200     0.30600
C1490       C  0.59290421  0.20573845  0.64687095    -0.05600
C1491       C  0.53673517  0.19244148  0.67442960    -0.06400
C1492       C  0.59226062  0.17936852  0.70333190    -0.06200
C1493       C  0.59230033  0.23953512  0.66414993    -0.05600
C1494       C  0.53674278  0.22654420  0.69308642    -0.06400
C1495       C  0.59293024  0.21317285  0.72059389    -0.06300
C1496       C  0.58285816  0.26142604  0.63830672    -0.31600
N1497       N  0.58073825  0.24379071  0.60633900     0.14900
C1498       C  0.58521741  0.20983208  0.61200931    -0.31600
H1499       H  0.57644916  0.18873967  0.59336389     0.16800
C1500       C  0.49998523  0.23568548  0.69865542    -0.30600
N1501       N  0.97802632  0.20942802  0.68399646     0.13600
C1502       C  0.49998493  0.18322110  0.66913692    -0.30600
C1503       C  0.58520033  0.20914551  0.75545561    -0.30900
N1504       N  0.58050867  0.17522602  0.76113191     0.14100
H1505       H  0.57640549  0.23028481  0.77404163     0.16700
C1506       C  0.58267502  0.15754626  0.72918817    -0.30900
H1507       H  0.57043707  0.13197265  0.72405238     0.16700
H1508       H  0.98980682  0.15904140  0.65607150     0.16700
H1509       H  0.57074376  0.28706939  0.64343810     0.16800
H1510       H  0.98981157  0.25980609  0.71189916     0.16700
C1511       C  0.58252379  0.32981938  0.76503131     0.87100
C1512       C  0.60909086  0.34986708  0.74175577    -0.53100
C1513       C  0.63502492  0.32923879  0.72375159     0.10000
C1514       C  0.62955452  0.28920211  0.73065866     0.21000
C1515       C  0.56385463  0.30100578  0.74026749    -0.53900
C1516       C  0.58776998  0.27865253  0.72205028     0.10100
C1517       C  0.60788684  0.31016827  0.78881061    -0.53400
C1518       C  0.63312596  0.28933371  0.77160936     0.10700
H1519       H  0.60852181  0.37811684  0.74154721     0.15200
H1520       H  0.64904879  0.27109771  0.71612011     0.00900
H1521       H  0.53426263  0.29728768  0.73943286     0.15500
H1522       H  0.60607658  0.31247200  0.81732790     0.15300
C1523       C  0.72987740  0.05971413  0.70467148     0.30600
C1524       C  0.66827646  0.07484450  0.66544346     0.30600
C1525       C  0.73681904  0.07342941  0.66891777    -0.05600
C1526       C  0.70555693  0.02822805  0.69442551    -0.06400
C1527       C  0.70102770  0.08432832  0.72203669    -0.06200
C1528       C  0.70626186  0.08500514  0.65118986    -0.05600
C1529       C  0.67402344  0.03451224  0.67357263    -0.06400
C1530       C  0.67007992  0.09238212  0.70210904    -0.06300
C1531       C  0.71982475  0.11418383  0.63617811    -0.31600
N1532       N  0.75707527  0.11367325  0.63554701     0.14900
C1533       C  0.76749060  0.08790697  0.65557308    -0.31600
H1534       H  0.79528323  0.07964691  0.66034960     0.16800
C1535       C  0.65708028  0.00136515  0.66875229    -0.30600
N1536       N  0.67632829  0.47764370  0.68693629     0.13600
C1537       C  0.70558451  0.49424537  0.70253630    -0.30600
C1538       C  0.64169275  0.09725706  0.72520301    -0.30900
N1539       N  0.65411751  0.09426990  0.75789070     0.14100
H1540       H  0.61317437  0.09585913  0.71804483     0.16700
C1541       C  0.68938769  0.08431548  0.75599681    -0.30900
H1542       H  0.70426995  0.07334303  0.77701689     0.16700
H1543       H  0.72669978  0.48150940  0.71692628     0.16600
H1544       H  0.70414286  0.13675824  0.63103752     0.16800
H1545       H  0.63335262  0.49462432  0.65250877     0.16700
C1546       C  0.82883952  0.12843690  0.56687661     0.87100
C1547       C  0.80362731  0.15057792  0.54509636    -0.53100
C1548       C  0.77974772  0.17127112  0.56472043     0.10000
C1549       C  0.78557123  0.16853711  0.60563993     0.21000
C1550       C  0.85034360  0.15400434  0.59276790    -0.53900
C1551       C  0.82804661  0.17490340  0.61442810     0.10100
C1552       C  0.80326249  0.10851995  0.58980078    -0.53400
C1553       C  0.78057633  0.12908924  0.61045036     0.10700
H1554       H  0.80298776  0.14795560  0.51662205     0.15200
H1555       H  0.76659754  0.18523835  0.62255517     0.00900
H1556       H  0.87992210  0.15243370  0.59644467     0.15500
H1557       H  0.80338621  0.08011383  0.59023568     0.15300
C1558       C  0.60199554  0.12318349  0.83937479     0.87100
C1559       C  0.57694950  0.14533365  0.81667216    -0.53100
C1560       C  0.59627572  0.16075692  0.79127927     0.10000
C1561       C  0.63724762  0.15273514  0.79125637     0.21000
C1562       C  0.62121189  0.09718082  0.81293672    -0.53900
C1563       C  0.63884523  0.11294783  0.78774800     0.10100
C1564       C  0.63274934  0.14812077  0.85443085    -0.53400
C1565       C  0.65158491  0.16364476  0.82860696     0.10700
H1566       H  0.54709668  0.14615700  0.81850679     0.15200
H1567       H  0.65225021  0.16459446  0.76972417     0.00900
H1568       H  0.61951251  0.06878105  0.81284128     0.15500
H1569       H  0.63923996  0.15180899  0.88210185     0.15300
C1570       C  0.84046938  0.22513826  0.71779674     0.30600
C1571       C  0.84050146  0.19314976  0.65065756     0.30600
C1572       C  0.82367299  0.24573014  0.68929917    -0.05600
C1573       C  0.88005408  0.21774255  0.70160572    -0.06400
C1574       C  0.82422900  0.18862070  0.71329833    -0.06200
C1575       C  0.82421032  0.22965459  0.65512661    -0.05600
C1576       C  0.88005703  0.20058195  0.66685462    -0.06400
C1577       C  0.82367378  0.17258013  0.67912250    -0.06300
C1578       C  0.83255243  0.25592845  0.63375783    -0.31600
N1579       N  0.83437897  0.28717361  0.65237668     0.14900
C1580       C  0.83044032  0.28083244  0.68623316    -0.31600
H1581       H  0.83816901  0.29944644  0.70771613     0.16800
C1582       C  0.91676557  0.19566313  0.65733219    -0.30600
N1583       N  0.93873658  0.20936914  0.68409833     0.13600
C1584       C  0.91678348  0.22293720  0.71096668    -0.30600
C1585       C  0.83028075  0.13744502  0.68213474    -0.30900
N1586       N  0.83414488  0.13104156  0.71597677     0.14100
H1587       H  0.83793571  0.11881204  0.66063693     0.16700
C1588       C  0.83249522  0.16228202  0.73463396    -0.30900
H1589       H  0.84397413  0.16631766  0.76065476     0.16700
H1590       H  0.92686113  0.23517188  0.73562810     0.16700
H1591       H  0.84404564  0.25179417  0.60775716     0.16800
H1592       H  0.92682323  0.18355923  0.63260127     0.16700
C1593       C  0.81789716  0.36572783  0.60091968     0.87100
C1594       C  0.78580394  0.38137771  0.62484072    -0.53100
C1595       C  0.76521339  0.35589264  0.63963515     0.10000
C1596       C  0.77914179  0.31840047  0.62845899     0.21000
C1597       C  0.84047830  0.34243077  0.62411445    -0.53900
C1598       C  0.81966069  0.31769973  0.63837976     0.10100
C1599       C  0.79911794  0.33987316  0.57368183    -0.53400
C1600       C  0.77942517  0.31494602  0.58836067     0.10700
H1601       H  0.78020514  0.40919521  0.62910275     0.15200
H1602       H  0.76328973  0.29700701  0.63958428     0.00900
H1603       H  0.87031661  0.34328030  0.62638322     0.15500
H1604       H  0.80273973  0.33998377  0.54542715     0.15300
C1605       C  0.81705895  0.05266998  0.76745263     0.87100
C1606       C  0.78514192  0.03700314  0.74337232    -0.53100
C1607       C  0.76469467  0.06247872  0.72839427     0.10000
C1608       C  0.77860556  0.09997542  0.73951960     0.21000
C1609       C  0.83985773  0.07585128  0.74435936    -0.53900
C1610       C  0.81921336  0.10057929  0.72989159     0.10100
C1611       C  0.79809457  0.07861550  0.79450504    -0.53400
C1612       C  0.77854497  0.10352407  0.77960699     0.10700
H1613       H  0.77950902  0.00919322  0.73919751     0.15200
H1614       H  0.76287251  0.12136173  0.72822321     0.00900
H1615       H  0.86971380  0.07494590  0.74230947     0.15500
H1616       H  0.80149718  0.07857780  0.82278944     0.15300
C1617       C  0.73031405  0.35867501  0.66330072     0.30600
C1618       C  0.66853708  0.34369438  0.70236614     0.30600
C1619       C  0.73709801  0.34494215  0.69908456    -0.05600
C1620       C  0.70595924  0.39021198  0.67343946    -0.06400
C1621       C  0.70149679  0.33409221  0.64586955    -0.06200
C1622       C  0.70644759  0.33346450  0.71673496    -0.05600
C1623       C  0.67434410  0.38397847  0.69418679    -0.06400
C1624       C  0.67044006  0.32612642  0.66571761    -0.06300
C1625       C  0.71986994  0.30427506  0.73183762    -0.31600
N1626       N  0.75711342  0.30468053  0.73258455     0.14900
C1627       C  0.76767748  0.33038579  0.71255228    -0.31600
H1628       H  0.79550244  0.33860379  0.70790781     0.16800
C1629       C  0.65718466  0.41704935  0.69866316    -0.30600
N1630       N  0.67638090  0.44071465  0.68039880     0.13600
C1631       C  0.70581475  0.42412201  0.66505259    -0.30600
C1632       C  0.64209182  0.32151278  0.64255696    -0.30900
N1633       N  0.65460122  0.32459014  0.60991830     0.14100
H1634       H  0.61354674  0.32306333  0.64967079     0.16700
C1635       C  0.68993783  0.33426876  0.61190171    -0.30900
H1636       H  0.70491865  0.34525349  0.59095634     0.16700
H1637       H  0.72692116  0.43682716  0.65063574     0.16700
H1638       H  0.70410915  0.28178437  0.73703253     0.16800
H1639       H  0.63331230  0.42379419  0.71471143     0.16700
C1640       C  0.60297651  0.29567839  0.52816981     0.87100
C1641       C  0.57770664  0.27362187  0.55073005    -0.53100
C1642       C  0.59679629  0.25820591  0.57629587     0.10000
C1643       C  0.63779785  0.26614439  0.57659471     0.21000
C1644       C  0.62201276  0.32169371  0.55469603    -0.53900
C1645       C  0.63942274  0.30592460  0.58003576     0.10100
C1646       C  0.63378293  0.27066187  0.51339701    -0.53400
C1647       C  0.65240822  0.25515870  0.53936919     0.10700
H1648       H  0.54787019  0.27284246  0.54866594     0.15200
H1649       H  0.65263454  0.25429377  0.59823788     0.00900
H1650       H  0.62038006  0.35009157  0.55470541     0.15500
H1651       H  0.64040640  0.26692298  0.48577219     0.15300
C1652       C  0.82842524  0.28975730  0.80163459     0.87100
C1653       C  0.85005614  0.26417575  0.77582153    -0.53100
C1654       C  0.82785548  0.24336063  0.75400625     0.10000
C1655       C  0.78533257  0.24977809  0.76261168     0.21000
C1656       C  0.80301345  0.30974778  0.77859356    -0.53900
C1657       C  0.78043319  0.28923033  0.75780506     0.10100
C1658       C  0.80305961  0.26765331  0.82325243    -0.53400
C1659       C  0.77925282  0.24704437  0.80350165     0.10700
H1660       H  0.87965975  0.26569049  0.77229874     0.15200
H1661       H  0.76643043  0.23312917  0.74558977     0.00900
H1662       H  0.80318120  0.33815436  0.77817531     0.15500
H1663       H  0.80223233  0.27029680  0.85171822     0.15300
C1664       C  0.68669806  0.23200678  0.53691041     0.30600
C1665       C  0.74740538  0.19169104  0.54898130     0.30600
C1666       C  0.67953292  0.19752367  0.55262568    -0.05600
C1667       C  0.70942401  0.22073827  0.50399213    -0.06400
C1668       C  0.71633096  0.24928549  0.56018542    -0.06200
C1669       C  0.70952574  0.17681768  0.55853840    -0.05600
C1670       C  0.74096926  0.19972548  0.50925727    -0.06400
C1671       C  0.74712791  0.22893471  0.56670330    -0.06300
C1672       C  0.69519994  0.14656232  0.57076768    -0.31600
N1673       N  0.65842361  0.15104797  0.57733367     0.14900
C1674       C  0.64855224  0.18069837  0.56278847    -0.31600
H1675       H  0.62095277  0.18870731  0.55758411     0.16800
C1676       C  0.75720092  0.19431773  0.97593610    -0.30600
N1677       N  0.73732246  0.21212434  0.95247886     0.13600
C1678       C  0.70846075  0.22803279  0.96955996    -0.30600
C1679       C  0.77601959  0.25211491  0.57066176    -0.30900
N1680       N  0.76386034  0.28522693  0.56877928     0.14100
H1681       H  0.80449270  0.24471055  0.56859334     0.16700
C1682       C  0.72814943  0.28327817  0.56002921    -0.30900
H1683       H  0.71282220  0.30436790  0.54974336     0.16700
H1684       H  0.68740319  0.24241355  0.95684856     0.16700
H1685       H  0.71037730  0.12266622  0.57327013     0.16800
H1686       H  0.78081234  0.17795900  0.96899561     0.16700
C1687       C  0.68592206  0.18670702  0.83125843     0.30600
C1688       C  0.74675811  0.22678094  0.81913374     0.30600
C1689       C  0.67884654  0.22132075  0.81571429    -0.05600
C1690       C  0.70880664  0.19773590  0.86414979    -0.06400
C1691       C  0.71545587  0.16938097  0.80785643    -0.06200
C1692       C  0.70891395  0.24189439  0.80975511    -0.05600
C1693       C  0.74043228  0.21858979  0.85882127    -0.06400
C1694       C  0.74625736  0.18964094  0.80124806    -0.06300
C1695       C  0.69471669  0.27211596  0.79731604    -0.31600
N1696       N  0.65793939  0.26775139  0.79072370     0.14900
C1697       C  0.64793441  0.23821336  0.80540977    -0.31600
H1698       H  0.62029655  0.23024266  0.81045569     0.16800
C1699       C  0.75696608  0.22363752  0.89201042    -0.30600
N1700       N  0.73719221  0.20580305  0.91549450     0.13600
C1701       C  0.70806617  0.19021575  0.89853020    -0.30600
C1702       C  0.77507414  0.16639913  0.79705197    -0.30900
N1703       N  0.76288443  0.13333052  0.79897469     0.14100
H1704       H  0.80355270  0.17373623  0.79897608     0.16700
C1705       C  0.72722024  0.13534399  0.80790276    -0.30900
H1706       H  0.71191389  0.11427796  0.81823002     0.16700
H1707       H  0.68698873  0.17587232  0.91125621     0.16700
H1708       H  0.70999097  0.29591351  0.79467881     0.16800
H1709       H  0.78074125  0.23977366  0.89887118     0.16700
N1710       N  0.99714031  0.02684536  0.97392241    -0.05500
N1711       N  0.49867060  0.04865510  0.50273735    -0.57600
N1712       N  0.52709116  0.50042182  0.89595097    -0.05200
N1713       N  0.55700089  0.01528979  0.88396391    -0.59800
N1714       N  0.99868586  0.02116235  0.89263250    -0.04800
N1715       N  0.50829616  0.04950847  0.87770494    -0.57600
N1716       N  0.52256798  0.50232719  0.97537964    -0.04500
N1717       N  0.54189186  0.00704599  0.50476139    -0.60100
C1718       C  0.52663006  0.03588890  0.52168411     0.96700
C1719       C  0.54454183  0.04571216  0.87239973     0.96400
N1720       N  0.99690451  0.39172202  0.89343871    -0.05700
N1721       N  0.99832522  0.36994837  0.86460781    -0.58200
N1722       N  0.52766199  0.41815029  0.97111287    -0.03800
N1723       N  0.55779243  0.40332480  0.98273267    -0.59500
N1724       N  0.99937916  0.39731258  0.97465710    -0.05700
N1725       N  0.00937070  0.36888351  0.98929976    -0.58500
N1726       N  0.52227360  0.41633874  0.89179664    -0.03500
N1727       N  0.54131399  0.41173921  0.86226715    -0.59600
Mn1728     Mn  0.52604055  0.45931172  0.93356788     1.18400
C1729       C  0.52603017  0.38291128  0.84540334     0.98700
C1730       C  0.54560104  0.37280302  0.49431125     0.99400
N1731       N  0.91210748  0.01542705  0.88705146    -0.05800
N1732       N  0.90851072  0.02915849  0.85635023    -0.62100
N1733       N  0.88543406  0.00729847  0.97044521    -0.04600
N1734       N  0.86265307  0.01936179  0.49571877    -0.62700
N1735       N  0.91281019  0.02925654  0.96812717    -0.05300
N1736       N  0.91009102  0.05612505  0.49141590    -0.62300
N1737       N  0.88651048  0.99137659  0.88990691    -0.04200
N1738       N  0.86545842  0.98801396  0.86175245    -0.63000
Mn1739     Mn  0.95500828  0.02395396  0.92994090     1.10700
C1740       C  0.87951092  0.01133823  0.84087781     1.00000
C1741       C  0.87918585  0.04958271  0.50863886     1.00000
N1742       N  0.91264091  0.40306759  0.98113112    -0.05300
N1743       N  0.90926878  0.38937548  0.01188152    -0.60600
N1744       N  0.88521966  0.41106215  0.89787538    -0.04600
N1745       N  0.86218480  0.39884438  0.87290715    -0.57400
N1746       N  0.91264648  0.38910778  0.90006265    -0.05900
N1747       N  0.90971085  0.36208439  0.87699565    -0.60200
N1748       N  0.88692744  0.42706046  0.97839093    -0.04900
N1749       N  0.86604115  0.43043076  0.00666603    -0.57400
Mn1750     Mn  0.95522025  0.39452232  0.93784111     1.20200
Mn1751     Mn  0.88433528  0.45920137  0.93414510     1.10100
Cl1752     Cl  0.95530448  0.45923625  0.93388280    -0.85400
C1753       C  0.88028951  0.40714878  0.52750298     0.97000
C1754       C  0.87861908  0.36853830  0.86002955     0.96800
C1755       C  0.84969752  0.31541932  0.82284534    -0.12700
C1756       C  0.86145717  0.34100711  0.83911317    -0.14200
C1757       C  0.56803065  0.34233725  0.49585935    -0.12700
C1758       C  0.58372718  0.31648320  0.50378330    -0.14200
C1759       C  0.84093814  0.02951496  0.78646851    -0.12700
C1760       C  0.86085199  0.01986930  0.80926477    -0.14200
C1761       C  0.86178462  0.39858463  0.55921509    -0.12700
C1762       C  0.84191323  0.38890620  0.58204412    -0.14200
C1763       C  0.58246768  0.10229502  0.86348603    -0.12700
C1764       C  0.56675657  0.07632762  0.87105563    -0.14200
C1765       C  0.85024265  0.10270595  0.54584847    -0.12700
C1766       C  0.86208090  0.07709274  0.52965923    -0.14200
C1767       C  0.55684176  0.35165316  0.78780501    -0.12700
C1768       C  0.54048126  0.36626638  0.81266760    -0.14200
C1769       C  0.54106104  0.05255279  0.55443148    -0.12700
C1770       C  0.55721367  0.06725760  0.57937461    -0.14200
C1771       C  0.58270336  0.58907959  0.10236192     0.87100
C1772       C  0.60902536  0.56892623  0.12579776    -0.53100
C1773       C  0.63488373  0.58945109  0.14397773     0.10000
C1774       C  0.62956570  0.62952699  0.13711430     0.21000
C1775       C  0.56391059  0.61795193  0.12703427    -0.53900
C1776       C  0.58775211  0.64021926  0.14545321     0.10100
C1777       C  0.60831576  0.60869416  0.07879490    -0.53400
C1778       C  0.63345940  0.62944187  0.09620645     0.10700
H1779       H  0.60840016  0.54066921  0.12596580     0.15200
H1780       H  0.64900873  0.64754749  0.15180179     0.00900
H1781       H  0.53432427  0.62178803  0.12764899     0.15500
H1782       H  0.60672788  0.60644781  0.05026680     0.15300
C1783       C  0.57625524  0.67626927  0.16625477     0.30600
C1784       C  0.57628784  0.74266921  0.20120002     0.30600
C1785       C  0.59290061  0.70574490  0.14685894    -0.05600
C1786       C  0.53673610  0.69244880  0.17442591    -0.06400
C1787       C  0.59226300  0.67937887  0.20332469    -0.06200
C1788       C  0.59229608  0.73954326  0.16413433    -0.05600
C1789       C  0.53674485  0.72655298  0.19308038    -0.06400
C1790       C  0.59293570  0.71318494  0.22058289    -0.06300
C1791       C  0.58284598  0.76142945  0.13828817    -0.31600
N1792       N  0.58072775  0.74379149  0.10632131     0.14900
C1793       C  0.58521068  0.70983411  0.11199652    -0.31600
H1794       H  0.57644505  0.68873855  0.09335335     0.16800
C1795       C  0.49998764  0.73569320  0.19865321    -0.30600
N1796       N  0.97802793  0.70942283  0.18399479     0.13600
C1797       C  0.49998601  0.68322617  0.16913957    -0.30600
C1798       C  0.58520872  0.70916252  0.25544652    -0.30900
N1799       N  0.58051120  0.67524471  0.26112775     0.14100
H1800       H  0.57641690  0.73030506  0.27402989     0.16700
C1801       C  0.58267444  0.65756141  0.22918529    -0.30900
H1802       H  0.57043101  0.63198902  0.22405280     0.16700
H1803       H  0.98981097  0.65903470  0.15607515     0.16700
H1804       H  0.57073051  0.78707327  0.14341657     0.16800
H1805       H  0.98980922  0.75980480  0.21189092     0.16700
C1806       C  0.58252734  0.82983080  0.26501974     0.87100
C1807       C  0.60909853  0.84987636  0.24174731    -0.53100
C1808       C  0.63503311  0.82924633  0.22374646     0.10000
C1809       C  0.62955922  0.78921030  0.23065215     0.21000
C1810       C  0.56385863  0.80101859  0.24025366    -0.53900
C1811       C  0.58777424  0.77866359  0.22203839     0.10100
C1812       C  0.60788628  0.81017823  0.28880157    -0.53400
C1813       C  0.63312670  0.78934283  0.27160314     0.10700
H1814       H  0.60853117  0.87812591  0.24153870     0.15200
H1815       H  0.64905435  0.77110523  0.21611599     0.00900
H1816       H  0.53426644  0.79730275  0.23941630     0.15500
H1817       H  0.60607371  0.81248335  0.31731843     0.15300
C1818       C  0.72987231  0.55971629  0.20466806     0.30600
C1819       C  0.66827242  0.57484717  0.16543560     0.30600
C1820       C  0.73681642  0.57342786  0.16891240    -0.05600
C1821       C  0.70554913  0.52823122  0.19442358    -0.06400
C1822       C  0.70102381  0.58433409  0.22202888    -0.06200
C1823       C  0.70625998  0.58500382  0.15118218    -0.05600
C1824       C  0.67401717  0.53451563  0.17356812    -0.06400
C1825       C  0.67007757  0.59238861  0.20209989    -0.06300
C1826       C  0.71982534  0.61418214  0.13617119    -0.31600
N1827       N  0.75707620  0.61367036  0.13554149     0.14900
C1828       C  0.76748950  0.58790402  0.15556820    -0.31600
H1829       H  0.79528212  0.57964483  0.16034771     0.16800
C1830       C  0.65707777  0.50136741  0.16874083    -0.30600
N1831       N  0.67632647  0.97764472  0.18692315     0.13600
C1832       C  0.70557933  0.99424673  0.20252870    -0.30600
C1833       C  0.64169219  0.59727620  0.22519420    -0.30900
N1834       N  0.65411799  0.59429463  0.25788270     0.14100
H1835       H  0.61317343  0.59588207  0.21803704     0.16700
C1836       C  0.68938535  0.58433159  0.25598992    -0.30900
H1837       H  0.70426587  0.57336179  0.27701214     0.16700
H1838       H  0.72669601  0.98150979  0.21691688     0.16600
H1839       H  0.70414489  0.63675690  0.13103173     0.16800
H1840       H  0.63335448  0.99462677  0.15249243     0.16700
C1841       C  0.82884251  0.62844219  0.06687375     0.87100
C1842       C  0.80362798  0.65058133  0.04509476    -0.53100
C1843       C  0.77974670  0.67127166  0.06471914     0.10000
C1844       C  0.78557135  0.66853776  0.10563864     0.21000
C1845       C  0.85034509  0.65401049  0.09276472    -0.53900
C1846       C  0.82804706  0.67490655  0.11442667     0.10100
C1847       C  0.80326786  0.60852216  0.08979791    -0.53400
C1848       C  0.78057930  0.62908915  0.11044791     0.10700
H1849       H  0.80298880  0.64796004  0.01662092     0.15200
H1850       H  0.76659680  0.68523802  0.12255442     0.00900
H1851       H  0.87992426  0.65244203  0.09643994     0.15500
H1852       H  0.80339320  0.58011596  0.09023063     0.15300
C1853       C  0.60199718  0.62319791  0.33937069     0.87100
C1854       C  0.57694991  0.64535025  0.31666950    -0.53100
C1855       C  0.59627615  0.66077723  0.29127787     0.10000
C1856       C  0.63724769  0.65275620  0.29125547     0.21000
C1857       C  0.62121349  0.59719867  0.31292939    -0.53900
C1858       C  0.63884529  0.61296907  0.28774196     0.10100
C1859       C  0.63275002  0.64813450  0.35442897    -0.53400
C1860       C  0.65158421  0.66366225  0.32860757     0.10700
H1861       H  0.54709695  0.64617068  0.31850288     0.15200
H1862       H  0.65225051  0.66461782  0.26972507     0.00900
H1863       H  0.61951495  0.56879851  0.31283092     0.15500
H1864       H  0.63924193  0.65181929  0.38210042     0.15300
C1865       C  0.84047286  0.72514029  0.21779585     0.30600
C1866       C  0.84050302  0.69315229  0.15065640     0.30600
C1867       C  0.82368218  0.74573552  0.18929750    -0.05600
C1868       C  0.88005713  0.71773818  0.20160657    -0.06400
C1869       C  0.82422673  0.68862529  0.21329666    -0.06200
C1870       C  0.82421920  0.72966039  0.15512471    -0.05600
C1871       C  0.88005903  0.70057788  0.16685512    -0.06400
C1872       C  0.82367053  0.67258481  0.17912090    -0.06300
C1873       C  0.83256793  0.75593378  0.13375694    -0.31600
N1874       N  0.83439515  0.78717918  0.15237561     0.14900
C1875       C  0.83045456  0.78083727  0.18623205    -0.31600
H1876       H  0.83818220  0.79945075  0.20771601     0.16800
C1877       C  0.91676708  0.69565634  0.15733289    -0.30600
N1878       N  0.93873860  0.70936032  0.18409947     0.13600
C1879       C  0.91678656  0.72292947  0.21096801    -0.30600
C1880       C  0.83027318  0.63744877  0.18213384    -0.30900
N1881       N  0.83413722  0.63104530  0.21597587     0.14100
H1882       H  0.83792836  0.61881528  0.16063652     0.16700
C1883       C  0.83248980  0.66228594  0.23463265    -0.30900
H1884       H  0.84396989  0.66632076  0.26065272     0.16700
H1885       H  0.92686513  0.73516549  0.23562903     0.16700
H1886       H  0.84406162  0.75179887  0.10775594     0.16800
H1887       H  0.92682432  0.68355428  0.13260070     0.16700
C1888       C  0.81790241  0.86572882  0.10091394     0.87100
C1889       C  0.78580921  0.88137810  0.12483432    -0.53100
C1890       C  0.76522200  0.85589348  0.13963203     0.10000
C1891       C  0.77915310  0.81840113  0.12845895     0.21000
C1892       C  0.84048712  0.84243569  0.12411000    -0.53900
C1893       C  0.81967289  0.81770403  0.13837837     0.10100
C1894       C  0.79912440  0.83987040  0.07367844    -0.53400
C1895       C  0.77943410  0.81494311  0.08836035     0.10700
H1896       H  0.78020778  0.90919524  0.12909365     0.15200
H1897       H  0.76330322  0.79700789  0.13958688     0.00900
H1898       H  0.87032559  0.84328785  0.12637726     0.15500
H1899       H  0.80274383  0.83997993  0.04542335     0.15300
C1900       C  0.81705071  0.55267872  0.26745995     0.87100
C1901       C  0.78513470  0.53700881  0.24337819    -0.53100
C1902       C  0.76468833  0.56248237  0.22839473     0.10000
C1903       C  0.77859803  0.59998002  0.23951850     0.21000
C1904       C  0.83984995  0.57585820  0.24436483    -0.53900
C1905       C  0.81920585  0.60058366  0.22989227     0.10100
C1906       C  0.79808398  0.57862634  0.29450809    -0.53400
C1907       C  0.77853539  0.60353278  0.27960632     0.10700
H1908       H  0.77950180  0.50919851  0.23920585     0.15200
H1909       H  0.76286577  0.62136537  0.22821928     0.00900
H1910       H  0.86970605  0.57495378  0.24231740     0.15500
H1911       H  0.80148529  0.57859242  0.32279341     0.15300
C1912       C  0.73032297  0.85867786  0.16329761     0.30600
C1913       C  0.66854700  0.84369914  0.20236344     0.30600
C1914       C  0.73710795  0.84495374  0.19908599    -0.05600
C1915       C  0.70596292  0.89021419  0.17342747    -0.06400
C1916       C  0.70151008  0.83408769  0.14587101    -0.06200
C1917       C  0.70645715  0.83347654  0.21673766    -0.05600
C1918       C  0.67434850  0.88398105  0.19417534    -0.06400
C1919       C  0.67045528  0.82612096  0.16572062    -0.06300
C1920       C  0.71987844  0.80428313  0.23183462    -0.31600
N1921       N  0.75712183  0.80468412  0.23257808     0.14900
C1922       C  0.76768671  0.83039102  0.21254848    -0.31600
H1923       H  0.79551236  0.83860633  0.20790233     0.16800
C1924       C  0.65718615  0.91705045  0.19864881    -0.30600
N1925       N  0.67638007  0.94071586  0.18038317     0.13600
C1926       C  0.70581551  0.92412404  0.16503796    -0.30600
C1927       C  0.64210828  0.82149148  0.14256204    -0.30900
N1928       N  0.65461615  0.82456687  0.10992325     0.14100
H1929       H  0.61356300  0.82303417  0.14967682     0.16700
C1930       C  0.68994988  0.83425541  0.11190303    -0.30900
H1931       H  0.70492520  0.84524233  0.09095604     0.16700
H1932       H  0.72692221  0.93683027  0.15062250     0.16700
H1933       H  0.70411633  0.78179303  0.23702750     0.16800
H1934       H  0.63331412  0.92379555  0.21469842     0.16700
C1935       C  0.60298854  0.79569357  0.02816660     0.87100
C1936       C  0.57771043  0.77363382  0.05071703    -0.53100
C1937       C  0.59679282  0.75820477  0.07627955     0.10000
C1938       C  0.63779587  0.76613568  0.07658471     0.21000
C1939       C  0.62202709  0.82169664  0.05470263    -0.53900
C1940       C  0.63942969  0.80591468  0.08003804     0.10100
C1941       C  0.63379263  0.77067528  0.01338980    -0.53400
C1942       C  0.65241054  0.75515999  0.03935918     0.10700
H1943       H  0.54787425  0.77286336  0.04865138     0.15200
H1944       H  0.65262745  0.75427603  0.09822565     0.00900
H1945       H  0.62040316  0.85009587  0.05472028     0.15500
H1946       H  0.64042298  0.76694687  0.98576584     0.15300
C1947       C  0.82843033  0.78976277  0.30163025     0.87100
C1948       C  0.85006088  0.76417833  0.27581971    -0.53100
C1949       C  0.82785956  0.74336257  0.25400571     0.10000
C1950       C  0.78533664  0.74978246  0.26261061     0.21000
C1951       C  0.80302039  0.80975194  0.27858684    -0.53900
C1952       C  0.78043989  0.78923410  0.25779982     0.10100
C1953       C  0.80306347  0.76766266  0.32325070    -0.53400
C1954       C  0.77925583  0.74705344  0.30350179     0.10700
H1955       H  0.87966457  0.76569213  0.27229659     0.15200
H1956       H  0.76643378  0.73313308  0.24558991     0.00900
H1957       H  0.80318895  0.83815835  0.27816616     0.15500
H1958       H  0.80223552  0.77030910  0.35171706     0.15300
C1959       C  0.68670039  0.73200811  0.03690153     0.30600
C1960       C  0.74740516  0.69169096  0.04897832     0.30600
C1961       C  0.67953309  0.69752476  0.05261626    -0.05600
C1962       C  0.70942769  0.72073812  0.00398564    -0.06400
C1963       C  0.71633297  0.74928638  0.06017817    -0.06200
C1964       C  0.70952484  0.67681853  0.05853224    -0.05600
C1965       C  0.74097195  0.69972472  0.00925351    -0.06400
C1966       C  0.74712677  0.72893376  0.06670079    -0.06300
C1967       C  0.69519810  0.64656476  0.07076300    -0.31600
N1968       N  0.65842197  0.65105192  0.07732744     0.14900
C1969       C  0.64855157  0.68070100  0.06277926    -0.31600
H1970       H  0.62095269  0.68871070  0.05757494     0.16800
C1971       C  0.75720010  0.69432476  0.47593987    -0.30600
N1972       N  0.73732221  0.71213479  0.45248467     0.13600
C1973       C  0.70845949  0.72803971  0.46956779    -0.30600
C1974       C  0.77602008  0.75211072  0.07066737    -0.30900
N1975       N  0.76386563  0.78522359  0.06878177     0.14100
H1976       H  0.80449231  0.74470326  0.06860814     0.16700
C1977       C  0.72815645  0.78327798  0.06002255    -0.30900
H1978       H  0.71283407  0.80436883  0.04973403     0.16700
H1979       H  0.68740364  0.74242436  0.45685840     0.16700
H1980       H  0.71037465  0.62266829  0.07326637     0.16800
H1981       H  0.78081312  0.67796845  0.46899827     0.16700
C1982       C  0.68592154  0.68672354  0.33126217     0.30600
C1983       C  0.74675965  0.72679392  0.31913643     0.30600
C1984       C  0.67884762  0.72133789  0.31571928    -0.05600
C1985       C  0.70880696  0.69775067  0.36415362    -0.06400
C1986       C  0.71545357  0.66939638  0.30785980    -0.06200
C1987       C  0.70891567  0.74190975  0.30975819    -0.05600
C1988       C  0.74043390  0.71860306  0.35882501    -0.06400
C1989       C  0.74625601  0.68965401  0.30125082    -0.06300
C1990       C  0.69471856  0.77212924  0.29731341    -0.31600
N1991       N  0.65794112  0.76776406  0.29072086     0.14900
C1992       C  0.64793574  0.73822885  0.30541165    -0.31600
H1993       H  0.62029829  0.73025743  0.31045531     0.16800
C1994       C  0.75696695  0.72365041  0.39201528    -0.30600
N1995       N  0.73719104  0.70581688  0.41549948     0.13600
C1996       C  0.70806494  0.69023113  0.39853422    -0.30600
C1997       C  0.77507016  0.66640953  0.29705083    -0.30900
N1998       N  0.76287650  0.63334176  0.29897100     0.14100
H1999       H  0.80354946  0.67374360  0.29897318     0.16700
C2000       C  0.72721367  0.63535798  0.30790257    -0.30900
H2001       H  0.71190537  0.61429226  0.31822868     0.16700
H2002       H  0.68698558  0.67588831  0.41125975     0.16700
H2003       H  0.70999287  0.79592608  0.29467367     0.16800
H2004       H  0.78074271  0.73978499  0.39887593     0.16700
N2005       N  0.99713624  0.52682526  0.47394409    -0.05500
N2006       N  0.49866292  0.54867702  0.00270825    -0.57600
N2007       N  0.52710466  0.00043094  0.39597492    -0.05200
N2008       N  0.55701495  0.51530102  0.38399038    -0.59800
N2009       N  0.99869196  0.52116301  0.39265730    -0.04800
N2010       N  0.50831099  0.54952482  0.37774351    -0.57600
N2011       N  0.52257448  0.00230881  0.47540107    -0.04500
N2012       N  0.54188611  0.50707074  0.00473891    -0.60100
C2013       C  0.52662477  0.53591612  0.02165700     0.96700
C2014       C  0.54455551  0.54572675  0.37243311     0.96400
N2015       N  0.99689743  0.89171887  0.39343125    -0.05700
N2016       N  0.99831549  0.86995325  0.36459418    -0.58200
N2017       N  0.52766056  0.91812902  0.47110890    -0.03800
N2018       N  0.55778628  0.90329636  0.48272992    -0.59500
N2019       N  0.99936282  0.89729165  0.47465147    -0.05700
N2020       N  0.00934748  0.86886206  0.48929657    -0.58500
N2021       N  0.52227965  0.91634272  0.39179285    -0.03500
N2022       N  0.54132330  0.91174669  0.36226466    -0.59600
Mn2023     Mn  0.52604793  0.95930470  0.43357721     1.18400
C2024       C  0.52603714  0.88292357  0.34539328     0.98700
C2025       C  0.54561536  0.87283221  0.99432170     0.99400
N2026       N  0.91210649  0.51543171  0.38706750    -0.05800
N2027       N  0.90850811  0.52917004  0.35636950    -0.62100
N2028       N  0.88543074  0.50728644  0.47046010    -0.04600
N2029       N  0.86265583  0.51937691  0.99570196    -0.62700
N2030       N  0.91280958  0.52924242  0.46814796    -0.05300
N2031       N  0.91008864  0.55614467  0.99138818    -0.62300
N2032       N  0.88650735  0.49138243  0.38991943    -0.04200
N2033       N  0.86545282  0.48802736  0.36176640    -0.63000
Mn2034     Mn  0.95500825  0.52394671  0.42996096     1.10700
C2035       C  0.87950488  0.51135523  0.34089571     1.00000
C2036       C  0.87918518  0.54960229  0.00861382     1.00000
N2037       N  0.91262839  0.90304957  0.48112222    -0.05300
N2038       N  0.90925703  0.88935453  0.51187148    -0.60600
N2039       N  0.88521353  0.91106614  0.39786882    -0.04600
N2040       N  0.86218085  0.89885468  0.37289597    -0.57400
N2041       N  0.91264126  0.88911214  0.40005033    -0.05900
N2042       N  0.90970984  0.86209647  0.37697411    -0.60200
N2043       N  0.88691716  0.92704538  0.47838665    -0.04900
N2044       N  0.86603281  0.93041449  0.50666310    -0.57400
Mn2045     Mn  0.95520995  0.89451237  0.43783194     1.20200
Mn2046     Mn  0.88432963  0.95919707  0.43414938     1.10100
Cl2047     Cl  0.95529991  0.95922763  0.43388857    -0.85400
C2048       C  0.88029912  0.90716891  0.02750973     0.97000
C2049       C  0.87861881  0.86855361  0.36000912     0.96800
C2050       C  0.84970105  0.81542739  0.32283714    -0.12700
C2051       C  0.86145567  0.84102064  0.33909830    -0.14200
C2052       C  0.56805089  0.84236928  0.99586739    -0.12700
C2053       C  0.58374646  0.81651224  0.00378611    -0.14200
C2054       C  0.84093165  0.52952880  0.28648251    -0.12700
C2055       C  0.86084645  0.51988809  0.30928158    -0.14200
C2056       C  0.86178683  0.89859722  0.05921492    -0.12700
C2057       C  0.84191436  0.88891037  0.08203858    -0.14200
C2058       C  0.58247511  0.60230569  0.36348357    -0.12700
C2059       C  0.56677196  0.57633919  0.37106850    -0.14200
C2060       C  0.85024682  0.60271556  0.04584187    -0.12700
C2061       C  0.86208457  0.57710762  0.02964365    -0.14200
C2062       C  0.55684626  0.85166772  0.28779177    -0.12700
C2063       C  0.54048831  0.86628252  0.31265533    -0.14200
C2064       C  0.54105071  0.55257753  0.05440941    -0.12700
C2065       C  0.55720449  0.56727300  0.07935814    -0.14200
C2066       C  0.58270939  0.58907096  0.60237249     0.87100
C2067       C  0.60903157  0.56892115  0.62580924    -0.53100
C2068       C  0.63488793  0.58944805  0.64398750     0.10000
C2069       C  0.62956831  0.62952335  0.63712176     0.21000
C2070       C  0.56391402  0.61794344  0.62704227    -0.53900
C2071       C  0.58775399  0.64021338  0.64545933     0.10100
C2072       C  0.60832022  0.60868536  0.57880313    -0.53400
C2073       C  0.63346247  0.62943639  0.59621345     0.10700
H2074       H  0.60840803  0.54066434  0.62597887     0.15200
H2075       H  0.64900960  0.64754573  0.65180922     0.00900
H2076       H  0.53432698  0.62177659  0.62765808     0.15500
H2077       H  0.60673224  0.60643611  0.55027480     0.15300
C2078       C  0.57625506  0.67626170  0.66626158     0.30600
C2079       C  0.57628533  0.74265872  0.70121195     0.30600
C2080       C  0.59290408  0.70573836  0.64687087    -0.05600
C2081       C  0.53673506  0.69244141  0.67442949    -0.06400
C2082       C  0.59226029  0.67936820  0.70333182    -0.06200
C2083       C  0.59230030  0.73953508  0.66414984    -0.05600
C2084       C  0.53674284  0.72654412  0.69308642    -0.06400
C2085       C  0.59293033  0.71317266  0.72059369    -0.06300
C2086       C  0.58285818  0.76142607  0.63830669    -0.31600
N2087       N  0.58073824  0.74379069  0.60633899     0.14900
C2088       C  0.58521740  0.70983206  0.61200924    -0.31600
H2089       H  0.57644893  0.68873960  0.59336369     0.16800
C2090       C  0.49998526  0.73568545  0.69865540    -0.30600
N2091       N  0.97802626  0.70942801  0.68399635     0.13600
C2092       C  0.49998480  0.68322109  0.66913693    -0.30600
C2093       C  0.58520048  0.70914535  0.75545540    -0.30900
N2094       N  0.58050861  0.67522564  0.76113167     0.14100
H2095       H  0.57640594  0.73028443  0.77404103     0.16700
C2096       C  0.58267467  0.65754597  0.72918808    -0.30900
H2097       H  0.57043609  0.63197171  0.72405212     0.16700
H2098       H  0.98980661  0.65904137  0.65607156     0.16700
H2099       H  0.57074391  0.78706953  0.64343805     0.16800
H2100       H  0.98981143  0.75980621  0.71189856     0.16700
C2101       C  0.58252383  0.82981962  0.76503130     0.87100
C2102       C  0.60909085  0.84986732  0.74175583    -0.53100
C2103       C  0.63502478  0.82923906  0.72375160     0.10000
C2104       C  0.62955453  0.78920225  0.73065865     0.21000
C2105       C  0.56385463  0.80100591  0.74026754    -0.53900
C2106       C  0.58777002  0.77865262  0.72205030     0.10100
C2107       C  0.60788684  0.81016840  0.78881059    -0.53400
C2108       C  0.63312593  0.78933380  0.77160933     0.10700
H2109       H  0.60852153  0.87811764  0.74154706     0.15200
H2110       H  0.64904889  0.77109802  0.71612001     0.00900
H2111       H  0.53426268  0.79728783  0.73943306     0.15500
H2112       H  0.60607650  0.81247207  0.81732788     0.15300
C2113       C  0.72987738  0.55971414  0.70467147     0.30600
C2114       C  0.66827644  0.57484443  0.66544344     0.30600
C2115       C  0.73681909  0.57342939  0.66891779    -0.05600
C2116       C  0.70555686  0.52822802  0.69442549    -0.06400
C2117       C  0.70102770  0.58432835  0.72203667    -0.06200
C2118       C  0.70626194  0.58500498  0.65118990    -0.05600
C2119       C  0.67402333  0.53451213  0.67357254    -0.06400
C2120       C  0.67007992  0.59238214  0.70210901    -0.06300
C2121       C  0.71982482  0.61418364  0.63617808    -0.31600
N2122       N  0.75707542  0.61367321  0.63554710     0.14900
C2123       C  0.76749071  0.58790694  0.65557309    -0.31600
H2124       H  0.79528333  0.57964691  0.66034963     0.16800
C2125       C  0.65708013  0.50136507  0.66875219    -0.30600
N2126       N  0.67632842  0.97764371  0.68693638     0.13600
C2127       C  0.70558461  0.99424536  0.70253632    -0.30600
C2128       C  0.64169282  0.59725711  0.72520302    -0.30900
N2129       N  0.65411754  0.59426991  0.75789069     0.14100
H2130       H  0.61317425  0.59585930  0.71804486     0.16700
C2131       C  0.68938772  0.58431547  0.75599682    -0.30900
H2132       H  0.70426993  0.57334299  0.77701690     0.16700
H2133       H  0.72669990  0.98150939  0.71692626     0.16600
H2134       H  0.70414301  0.63675756  0.63103745     0.16800
H2135       H  0.63335302  0.99462443  0.65250901     0.16700
C2136       C  0.82883972  0.62843696  0.56687667     0.87100
C2137       C  0.80362735  0.65057792  0.54509643    -0.53100
C2138       C  0.77974775  0.67127112  0.56472048     0.10000
C2139       C  0.78557126  0.66853710  0.60563993     0.21000
C2140       C  0.85034388  0.65400430  0.59276797    -0.53900
C2141       C  0.82804679  0.67490336  0.61442811     0.10100
C2142       C  0.80326253  0.60852004  0.58980080    -0.53400
C2143       C  0.78057634  0.62908929  0.61045040     0.10700
H2144       H  0.80298763  0.64795555  0.51662212     0.15200
H2145       H  0.76659753  0.68523857  0.62255519     0.00900
H2146       H  0.87992285  0.65243355  0.59644481     0.15500
H2147       H  0.80338617  0.58011395  0.59023569     0.15300
C2148       C  0.60199561  0.62318349  0.83937474     0.87100
C2149       C  0.57694949  0.64533367  0.81667213    -0.53100
C2150       C  0.59627567  0.66075689  0.79127921     0.10000
C2151       C  0.63724754  0.65273515  0.79125632     0.21000
C2152       C  0.62121193  0.59718079  0.81293667    -0.53900
C2153       C  0.63884523  0.61294780  0.78774796     0.10100
C2154       C  0.63274936  0.64812080  0.85443083    -0.53400
C2155       C  0.65158485  0.66364481  0.82860693     0.10700
H2156       H  0.54709672  0.64615706  0.81850675     0.15200
H2157       H  0.65225008  0.66459453  0.76972416     0.00900
H2158       H  0.61951256  0.56878092  0.81284121     0.15500
H2159       H  0.63923998  0.65180896  0.88210185     0.15300
C2160       C  0.84046938  0.72513825  0.71779675     0.30600
C2161       C  0.84050143  0.69314975  0.65065761     0.30600
C2162       C  0.82367295  0.74573015  0.68929917    -0.05600
C2163       C  0.88005405  0.71774252  0.70160579    -0.06400
C2164       C  0.82422904  0.68862073  0.71329836    -0.06200
C2165       C  0.82421029  0.72965460  0.65512660    -0.05600
C2166       C  0.88005693  0.70058192  0.66685474    -0.06400
C2167       C  0.82367376  0.67258022  0.67912262    -0.06300
C2168       C  0.83255248  0.75592843  0.63375783    -0.31600
N2169       N  0.83437903  0.78717361  0.65237667     0.14900
C2170       C  0.83044035  0.78083244  0.68623315    -0.31600
H2171       H  0.83816901  0.79944644  0.70771612     0.16800
C2172       C  0.91676539  0.69566315  0.65733219    -0.30600
N2173       N  0.93873650  0.70936905  0.68409834     0.13600
C2174       C  0.91678346  0.72293723  0.71096668    -0.30600
C2175       C  0.83028059  0.63744509  0.68213492    -0.30900
N2176       N  0.83414489  0.63104162  0.71597696     0.14100
H2177       H  0.83793565  0.61881232  0.66063741     0.16700
C2178       C  0.83249516  0.66228207  0.73463404    -0.30900
H2179       H  0.84397419  0.66631777  0.76065480     0.16700
H2180       H  0.92686113  0.73517185  0.73562806     0.16700
H2181       H  0.84404567  0.75179413  0.60775714     0.16800
H2182       H  0.92682280  0.68355923  0.63260130     0.16700
C2183       C  0.81789716  0.86572786  0.60091969     0.87100
C2184       C  0.78580391  0.88137773  0.62484076    -0.53100
C2185       C  0.76521342  0.85589264  0.63963518     0.10000
C2186       C  0.77914182  0.81840046  0.62845898     0.21000
C2187       C  0.84047830  0.84243079  0.62411442    -0.53900
C2188       C  0.81966072  0.81769972  0.63837973     0.10100
C2189       C  0.79911798  0.83987316  0.57368183    -0.53400
C2190       C  0.77942521  0.81494601  0.58836065     0.10700
H2191       H  0.78020503  0.90919523  0.62910283     0.15200
H2192       H  0.76328976  0.79700702  0.63958427     0.00900
H2193       H  0.87031661  0.84328032  0.62638315     0.15500
H2194       H  0.80273953  0.83998403  0.54542710     0.15300
C2195       C  0.81705888  0.55266989  0.76745264     0.87100
C2196       C  0.78514187  0.53700308  0.74337226    -0.53100
C2197       C  0.76469467  0.56247868  0.72839426     0.10000
C2198       C  0.77860558  0.59997540  0.73951958     0.21000
C2199       C  0.83985766  0.57585120  0.74435938    -0.53900
C2200       C  0.81921335  0.60057926  0.72989162     0.10100
C2201       C  0.79809453  0.57861544  0.79450505    -0.53400
C2202       C  0.77854509  0.60352411  0.77960696     0.10700
H2203       H  0.77950860  0.50919313  0.73919762     0.15200
H2204       H  0.76287253  0.62136168  0.72822316     0.00900
H2205       H  0.86971372  0.57494578  0.74230954     0.15500
H2206       H  0.80149721  0.57857785  0.82278946     0.15300
C2207       C  0.73031407  0.85867501  0.66330079     0.30600
C2208       C  0.66853697  0.84369447  0.70236613     0.30600
C2209       C  0.73709794  0.84494209  0.69908459    -0.05600
C2210       C  0.70595912  0.89021198  0.67343943    -0.06400
C2211       C  0.70149682  0.83409219  0.64586960    -0.06200
C2212       C  0.70644749  0.83346462  0.71673504    -0.05600
C2213       C  0.67434392  0.88397859  0.69418684    -0.06400
C2214       C  0.67044001  0.82612643  0.66571762    -0.06300
C2215       C  0.71986995  0.80427513  0.73183756    -0.31600
N2216       N  0.75711339  0.80468047  0.73258455     0.14900
C2217       C  0.76767743  0.83038574  0.71255233    -0.31600
H2218       H  0.79550229  0.83860373  0.70790787     0.16800
C2219       C  0.65718453  0.91704947  0.69866320    -0.30600
N2220       N  0.67638074  0.94071467  0.68039892     0.13600
C2221       C  0.70581463  0.92412199  0.66505266    -0.30600
C2222       C  0.64209178  0.82151288  0.64255696    -0.30900
N2223       N  0.65460121  0.82459013  0.60991831     0.14100
H2224       H  0.61354666  0.82306324  0.64967084     0.16700
C2225       C  0.68993782  0.83426880  0.61190173    -0.30900
H2226       H  0.70491856  0.84525347  0.59095638     0.16700
H2227       H  0.72692107  0.93682718  0.65063593     0.16700
H2228       H  0.70410909  0.78178436  0.73703252     0.16800
H2229       H  0.63331162  0.92379463  0.71471156     0.16700
C2230       C  0.60297643  0.79567841  0.52816983     0.87100
C2231       C  0.57770660  0.77362187  0.55073007    -0.53100
C2232       C  0.59679627  0.75820594  0.57629590     0.10000
C2233       C  0.63779787  0.76614446  0.57659475     0.21000
C2234       C  0.62201270  0.82169372  0.55469602    -0.53900
C2235       C  0.63942283  0.80592461  0.58003571     0.10100
C2236       C  0.63378295  0.77066196  0.51339706    -0.53400
C2237       C  0.65240829  0.75515876  0.53936927     0.10700
H2238       H  0.54787015  0.77284240  0.54866597     0.15200
H2239       H  0.65263458  0.75429398  0.59823803     0.00900
H2240       H  0.62038009  0.85009150  0.55470526     0.15500
H2241       H  0.64040608  0.76692285  0.48577229     0.15300
C2242       C  0.82842534  0.78975727  0.80163448     0.87100
C2243       C  0.85005631  0.76417585  0.77582139    -0.53100
C2244       C  0.82785562  0.74336057  0.75400627     0.10000
C2245       C  0.78533260  0.74977797  0.76261167     0.21000
C2246       C  0.80301342  0.80974775  0.77859355    -0.53900
C2247       C  0.78043320  0.78923024  0.75780503     0.10100
C2248       C  0.80305967  0.76765325  0.82325238    -0.53400
C2249       C  0.77925285  0.74704432  0.80350160     0.10700
H2250       H  0.87966034  0.76569052  0.77229866     0.15200
H2251       H  0.76643047  0.73312874  0.74558980     0.00900
H2252       H  0.80318083  0.83815437  0.77817551     0.15500
H2253       H  0.80223238  0.77029673  0.85171817     0.15300
C2254       C  0.68669812  0.73200674  0.53691042     0.30600
C2255       C  0.74740550  0.69169109  0.54898129     0.30600
C2256       C  0.67953314  0.69752365  0.55262568    -0.05600
C2257       C  0.70942404  0.72073821  0.50399211    -0.06400
C2258       C  0.71633104  0.74928534  0.56018552    -0.06200
C2259       C  0.70952586  0.67681769  0.55853834    -0.05600
C2260       C  0.74096935  0.69972553  0.50925727    -0.06400
C2261       C  0.74712799  0.72893469  0.56670334    -0.06300
C2262       C  0.69519996  0.64656235  0.57076772    -0.31600
N2263       N  0.65842371  0.65104794  0.57733374     0.14900
C2264       C  0.64855246  0.68069842  0.56278854    -0.31600
H2265       H  0.62095347  0.68870753  0.55758444     0.16800
C2266       C  0.75720097  0.69431777  0.97593614    -0.30600
N2267       N  0.73732249  0.71212432  0.95247885     0.13600
C2268       C  0.70846077  0.72803278  0.96955993    -0.30600
C2269       C  0.77601969  0.75211488  0.57066179    -0.30900
N2270       N  0.76386051  0.78522685  0.56877927     0.14100
H2271       H  0.80449275  0.74471046  0.56859333     0.16700
C2272       C  0.72814951  0.78327803  0.56002935    -0.30900
H2273       H  0.71282239  0.80436743  0.54974359     0.16700
H2274       H  0.68740316  0.74241345  0.95684842     0.16700
H2275       H  0.71037715  0.62266625  0.57327020     0.16800
H2276       H  0.78081235  0.67795891  0.96899564     0.16700
C2277       C  0.68592203  0.68670703  0.83125842     0.30600
C2278       C  0.74675814  0.72678094  0.81913373     0.30600
C2279       C  0.67884652  0.72132075  0.81571425    -0.05600
C2280       C  0.70880666  0.69773584  0.86414979    -0.06400
C2281       C  0.71545592  0.66938104  0.80785645    -0.06200
C2282       C  0.70891394  0.74189437  0.80975507    -0.05600
C2283       C  0.74043233  0.71858979  0.85882126    -0.06400
C2284       C  0.74625745  0.68964096  0.80124813    -0.06300
C2285       C  0.69471669  0.77211595  0.79731600    -0.31600
N2286       N  0.65793937  0.76775142  0.79072364     0.14900
C2287       C  0.64793438  0.73821337  0.80540970    -0.31600
H2288       H  0.62029653  0.73024261  0.81045550     0.16800
C2289       C  0.75696611  0.72363752  0.89201040    -0.30600
N2290       N  0.73719224  0.70580303  0.91549449     0.13600
C2291       C  0.70806615  0.69021574  0.89853021    -0.30600
C2292       C  0.77507419  0.66639914  0.79705193    -0.30900
N2293       N  0.76288454  0.63333057  0.79897462     0.14100
H2294       H  0.80355284  0.67373623  0.79897597     0.16700
C2295       C  0.72722032  0.63534401  0.80790272    -0.30900
H2296       H  0.71191420  0.61427810  0.81823002     0.16700
H2297       H  0.68698873  0.67587216  0.91125624     0.16700
H2298       H  0.70999101  0.79591349  0.79467879     0.16800
H2299       H  0.78074144  0.73977359  0.89887116     0.16700
N2300       N  0.99714018  0.52684534  0.97392246    -0.05500
N2301       N  0.49867066  0.54865504  0.50273730    -0.57600
N2302       N  0.52709114  0.00042173  0.89595085    -0.05200
N2303       N  0.55700088  0.51528978  0.88396388    -0.59800
N2304       N  0.99868589  0.52116239  0.89263249    -0.04800
N2305       N  0.50829613  0.54950853  0.87770503    -0.57600
N2306       N  0.52256797  0.00232718  0.97537958    -0.04500
N2307       N  0.54189190  0.50704593  0.50476139    -0.60100
C2308       C  0.52663011  0.53588887  0.52168410     0.96700
C2309       C  0.54454178  0.54571219  0.87239974     0.96400
N2310       N  0.99690440  0.89172203  0.89343869    -0.05700
N2311       N  0.99832520  0.86994835  0.86460780    -0.58200
N2312       N  0.52766193  0.91815026  0.97111291    -0.03800
N2313       N  0.55779240  0.90332475  0.98273269    -0.59500
N2314       N  0.99937915  0.89731260  0.97465708    -0.05700
N2315       N  0.00937072  0.86888353  0.98929972    -0.58500
N2316       N  0.52227357  0.91633875  0.89179668    -0.03500
N2317       N  0.54131393  0.91173930  0.86226718    -0.59600
Mn2318     Mn  0.52604056  0.95931170  0.93356789     1.18400
C2319       C  0.52603023  0.88291132  0.84540334     0.98700
C2320       C  0.54560105  0.87280311  0.49431130     0.99400
N2321       N  0.91210746  0.51542706  0.88705144    -0.05800
N2322       N  0.90851064  0.52915851  0.85635026    -0.62100
N2323       N  0.88543403  0.50729848  0.97044521    -0.04600
N2324       N  0.86265312  0.51936174  0.49571879    -0.62700
N2325       N  0.91281025  0.52925651  0.96812719    -0.05300
N2326       N  0.91009090  0.55612509  0.49141583    -0.62300
N2327       N  0.88651039  0.49137659  0.88990691    -0.04200
N2328       N  0.86545835  0.48801397  0.86175247    -0.63000
Mn2329     Mn  0.95500827  0.52395395  0.92994088     1.10700
C2330       C  0.87951082  0.51133824  0.84087782     1.00000
C2331       C  0.87918575  0.54958278  0.50863876     1.00000
N2332       N  0.91264086  0.90306758  0.98113108    -0.05300
N2333       N  0.90926872  0.88937548  0.01188149    -0.60600
N2334       N  0.88521966  0.91106218  0.89787539    -0.04600
N2335       N  0.86218479  0.89884439  0.87290715    -0.57400
N2336       N  0.91264643  0.88910779  0.90006268    -0.05900
N2337       N  0.90971080  0.86208436  0.87699569    -0.60200
N2338       N  0.88692747  0.92706053  0.97839095    -0.04900
N2339       N  0.86604119  0.93043078  0.00666607    -0.57400
Mn2340     Mn  0.95522025  0.89452232  0.93784109     1.20200
Mn2341     Mn  0.88433533  0.95920142  0.93414509     1.10100
Cl2342     Cl  0.95530451  0.95923621  0.93388281    -0.85400
C2343       C  0.88028950  0.90714881  0.52750299     0.97000
C2344       C  0.87861911  0.86853832  0.86002952     0.96800
C2345       C  0.84969741  0.81541938  0.82284525    -0.12700
C2346       C  0.86145716  0.84100707  0.83911315    -0.14200
C2347       C  0.56803059  0.84233732  0.49585935    -0.12700
C2348       C  0.58372707  0.81648325  0.50378328    -0.14200
C2349       C  0.84093813  0.52951491  0.78646846    -0.12700
C2350       C  0.86085185  0.51986925  0.80926481    -0.14200
C2351       C  0.86178462  0.89858462  0.55921507    -0.12700
C2352       C  0.84191333  0.88890623  0.58204418    -0.14200
C2353       C  0.58246773  0.60229508  0.86348597    -0.12700
C2354       C  0.56675657  0.57632769  0.87105561    -0.14200
C2355       C  0.85024256  0.60270588  0.54584843    -0.12700
C2356       C  0.86208096  0.57709277  0.52965920    -0.14200
C2357       C  0.55684178  0.85165319  0.78780501    -0.12700
C2358       C  0.54048128  0.86626646  0.81266755    -0.14200
C2359       C  0.54106102  0.55255278  0.55443151    -0.12700
C2360       C  0.55721370  0.56725764  0.57937460    -0.14200
loop_ 
_geom_bond_atom_site_label_1 
_geom_bond_atom_site_label_2 
_geom_bond_distance 
_geom_bond_site_symmetry_2 
_ccdc_geom_bond_type 
C1            C2   1.554       .  S
C1            C7   1.531       .  S
C1            C5   1.551       .  S
C1          C295   1.485       .  S
C2            H9   1.082       .  S
C2            C3   1.375       .  D
C3            C4   1.587       .  S
C3           C49   1.588       .  S
C4            C8   1.568       .  S
C4            C6   1.596       .  S
C4           H10   1.107       .  S
C5           H11   1.083       .  S
C5            C6   1.369       .  D
C6           C13   1.591       .  S
C7           H12   1.087       .  S
C7            C8   1.349       .  D
C8          N198   1.455       .  S
C13          C15   1.522       .  S
C13          C17   1.526       .  S
C13          C16   1.582       .  S
C14          C41   1.590       .  S
C14          C18   1.525       .  S
C14          C20   1.522       .  S
C14          C19   1.583       .  S
C15          C23   1.381       .  A
C15          C18   1.404       .  A
C16          C27   1.390   1_455  A
C16          C19   1.436       .  A
C17          C31   1.387       .  A
C17          C20   1.404       .  A
C18          C21   1.386       .  A
C19          C25   1.390   1_455  A
C20          C28   1.380       .  A
C21          N22   1.349       .  A
C21          H34   1.078       .  S
N22         C167   1.435       .  S
N22          C23   1.343       .  A
C23          H24   1.081       .  S
C25        N1206   1.367       .  A
C25        H1215   1.081       .  S
N26        C1205   1.367       .  A
N26        C1207   1.367       .  A
N26         N108   1.425       .  S
C27        N1206   1.367       .  A
C27        H1213   1.081       .  S
C28          N29   1.343       .  A
C28          H30   1.081       .  S
N29          C85   1.435       .  S
N29          C31   1.349       .  A
C31          H32   1.078       .  S
H33        C1207   1.081       .  S
H35        C1205   1.081       .  S
C36          C37   1.554       .  S
C36          C42   1.531       .  S
C36          C40   1.550       .  S
C36         C292   1.485       .  S
C37          H44   1.081       .  S
C37          C38   1.376       .  D
C38          C39   1.587       .  S
C38         C143   1.588       .  S
C39          C43   1.568       .  S
C39          C41   1.596       .  S
C39          H45   1.107       .  S
C40          H46   1.083       .  S
C40          C41   1.368       .  D
C42          H47   1.087       .  S
C42          C43   1.349       .  D
C43         N221   1.455       .  S
C48         C132   1.553       .  S
C48          C50   1.522       .  S
C48          C52   1.523       .  S
C48          C51   1.519       .  S
C49          C53   1.543       .  S
C49          C55   1.505       .  S
C49          C54   1.611       .  S
C50          C58   1.360       .  A
C50          C53   1.389       .  A
C51          C54   1.425       .  A
C51         C652   1.360   1_545  A
C52          C66   1.363       .  A
C52          C55   1.404       .  A
C53          C56   1.385       .  A
C54          C60   1.408       .  A
C55          C63   1.359       .  A
C56          N57   1.352       .  A
C56          H69   1.065       .  S
N57          C78   1.443       .  S
N57          C58   1.348       .  A
C58          H59   1.076       .  S
C60         N651   1.375   1_545  A
C60         H660   1.080   1_545  S
N61          C62   1.351       .  A
N61         C650   1.375       .  A
N61         N155   1.415       .  S
C62         C641   1.360       .  A
C62          H68   1.081       .  S
C63          N64   1.340       .  A
C63          H65   1.070       .  S
N64          C88   1.409       .  S
N64          C66   1.335       .  A
C66          H67   1.079       .  S
H70         C650   1.080       .  S
C71          C72   1.535       .  S
C71          C77   1.521       .  S
C71          C75   1.546       .  S
C71         C290   1.445       .  S
C72          H79   1.084       .  S
C72          C73   1.357       .  D
C73          C74   1.588       .  S
C73         C190   1.556       .  S
C74          C78   1.545       .  S
C74          C76   1.592       .  S
C74          H80   1.110       .  S
C75          H81   1.084       .  S
C75          C76   1.368       .  D
C76          C96   1.566       .  S
C77          H82   1.088       .  S
C77          C78   1.348       .  D
C83          C84   1.552       .  S
C83          C89   1.549       .  S
C83          C87   1.528       .  S
C83         C288   1.451       .  S
C84          H91   1.085       .  S
C84          C85   1.368       .  D
C85          C86   1.517       .  S
C86          C90   1.544       .  S
C86          C88   1.518       .  S
C86          H92   1.112       .  S
C87          H93   1.088       .  S
C87          C88   1.338       .  D
C89          H94   1.080       .  S
C89          C90   1.373       .  D
C90         C212   1.525       .  S
C95         C179   1.566       .  S
C95          C97   1.520       .  S
C95          C99   1.513       .  S
C95          C98   1.580       .  S
C96         C100   1.513       .  S
C96         C102   1.519       .  S
C96         C101   1.579       .  S
C97         C105   1.379       .  A
C97         C100   1.397       .  A
C98         C109   1.390       .  A
C98         C101   1.433       .  A
C99         C113   1.378       .  A
C99         C102   1.397       .  A
C100        C103   1.377       .  A
C101        C107   1.389       .  A
C102        C110   1.379       .  A
C103        N104   1.343       .  A
C103        H116   1.076       .  S
N104        C123   1.425       .  S
N104        C105   1.341       .  A
C105        H106   1.080       .  S
C107        N108   1.367       .  A
C107        H117   1.081       .  S
N108        C109   1.368       .  A
C109        H115   1.081       .  S
C110        N111   1.341       .  A
C110        H112   1.079       .  S
N111        C135   1.426       .  S
N111        C113   1.343       .  A
C113        H114   1.077       .  S
C118        C119   1.568       .  S
C118        C124   1.536       .  S
C118        C122   1.541       .  S
C118        C287   1.472       .  S
C119        H126   1.083       .  S
C119        C120   1.384       .  D
C120        C121   1.548       .  S
C120        C142   1.554       .  S
C121        C125   1.526       .  S
C121        C123   1.518       .  S
C121        H127   1.112       .  S
C122        H128   1.086       .  S
C122        C123   1.358       .  D
C124        H129   1.087       .  S
C124        C125   1.349       .  D
C125        N205   1.427       .  S
C130        C131   1.568       .  S
C130        C136   1.536       .  S
C130        C134   1.540       .  S
C130        C284   1.471       .  S
C131        H138   1.083       .  S
C131        C132   1.383       .  D
C132        C133   1.548       .  S
C133        C137   1.526       .  S
C133        C135   1.519       .  S
C133        H139   1.112       .  S
C134        H140   1.086       .  S
C134        C135   1.357       .  D
C136        H141   1.087       .  S
C136        C137   1.349       .  D
C137        N228   1.426       .  S
C142        C144   1.522       .  S
C142        C146   1.524       .  S
C142        C145   1.520       .  S
C143        C147   1.542       .  S
C143        C149   1.505       .  S
C143        C148   1.610       .  S
C144        C152   1.360       .  A
C144        C147   1.389       .  A
C145        C156   1.360       .  A
C145        C148   1.425       .  A
C146        C160   1.363       .  A
C146        C149   1.404       .  A
C147        C150   1.385       .  A
C148        C154   1.408       .  A
C149        C157   1.359       .  A
C150        N151   1.351       .  A
C150        H163   1.065       .  S
N151        C182   1.443       .  S
N151        C152   1.348       .  A
C152        H153   1.076       .  S
C154        N155   1.375       .  A
C154        H164   1.080       .  S
N155        C156   1.351       .  A
C156        H162   1.081       .  S
C157        N158   1.340       .  A
C157        H159   1.071       .  S
N158        C170   1.409       .  S
N158        C160   1.335       .  A
C160        H161   1.079       .  S
C165        C166   1.552       .  S
C165        C171   1.548       .  S
C165        C169   1.528       .  S
C165        C283   1.451       .  S
C166        H173   1.085       .  S
C166        C167   1.368       .  D
C167        C168   1.518       .  S
C168        C172   1.543       .  S
C168        C170   1.518       .  S
C168        H174   1.112       .  S
C169        H175   1.088       .  S
C169        C170   1.338       .  D
C171        H176   1.080   1_554  S
C171        C172   1.372       .  D
C172        C189   1.525       .  S
C177        C178   1.546       .  S
C177        C183   1.534       .  S
C177        C181   1.521       .  S
C177        C280   1.445       .  S
C178        H185   1.084       .  S
C178        C179   1.368       .  D
C179        C180   1.592       .  S
C180        C184   1.588       .  S
C180        C182   1.545       .  S
C180        H186   1.110       .  S
C181        H187   1.088       .  S
C181        C182   1.348       .  D
C183        H188   1.084       .  S
C183        C184   1.357       .  D
C184        C213   1.556       .  S
C189        C191   1.514       .  S
C189        C193   1.513       .  S
C189        C192   1.535       .  S
C190        C194   1.542       .  S
C190        C196   1.528       .  S
C190        C195   1.588       .  S
C191        C199   1.367       .  A
C191        C194   1.375       .  A
C192        C195   1.421       .  A
C192        C498   1.365   1_554  A
C193        C207   1.370       .  A
C193        C196   1.395       .  A
C194        C197   1.383       .  A
C195        C496   1.402   1_554  A
C196        C204   1.374       .  A
C197        N198   1.366       .  A
C197        H210   1.077       .  S
N198        C199   1.350       .  A
C199        H200   1.070       .  S
C201        C490   1.402       .  A
C201        N202   1.372       .  A
C201        H211   1.081       .  S
N202        C203   1.352       .  A
N202        N225   1.413       .  S
C203        C487   1.365       .  A
C203        H209   1.079       .  S
C204        N205   1.348       .  A
C204        H206   1.072       .  S
N205        C207   1.338       .  A
C207        H208   1.079       .  S
C212        C214   1.515       .  S
C212        C216   1.513       .  S
C212        C215   1.536       .  S
C213        C217   1.542       .  S
C213        C219   1.527       .  S
C213        C218   1.588       .  S
C214        C222   1.367       .  A
C214        C217   1.375       .  A
C215        C226   1.366       .  A
C215        C218   1.421       .  A
C216        C230   1.370       .  A
C216        C219   1.394       .  A
C217        C220   1.383       .  A
C218        C224   1.401       .  A
C219        C227   1.373       .  A
C220        N221   1.365       .  A
C220        H233   1.077       .  S
N221        C222   1.350       .  A
C222        H223   1.070       .  S
C224        N225   1.371       .  A
C224        H234   1.081       .  S
N225        C226   1.353       .  A
C226        H232   1.079       .  S
C227        N228   1.348       .  A
C227        H229   1.072       .  S
N228        C230   1.338       .  A
C230        H231   1.079       .  S
N235       Mn264   2.267       .  S
N235       N1711   1.327       .  A
N235       N2011   1.321       .  A
N236        C243   1.359   1_655  A
N236       N1710   1.327   1_554  A
N237       Mn253   2.212       .  S
N237       N2009   1.313   1_455  A
N237        N828   1.324       .  A
N238        C244   1.354       .  A
N238        N827   1.324       .  A
N239       Mn264   2.127       .  S
N239       N2007   1.313       .  A
N239       N1420   1.312       .  A
N240        C244   1.336       .  A
N240       N1419   1.312   1_455  A
N241       Mn253   2.203       .  S
N241       N2005   1.321   1_455  A
N241       N1127   1.322       .  A
N242        C243   1.352       .  A
N242       N1126   1.322   1_554  A
C243        C294   1.455       .  S
C244        C289   1.426       .  S
N245       Mn275   2.267       .  S
N245        N246   1.327       .  A
N245       N1431   1.321       .  A
N246       C1434   1.359       .  A
N247       Mn253   2.212       .  S
N247        N248   1.324       .  A
N247       N1429   1.313   1_455  A
N248        C550   1.354       .  A
N249       Mn275   2.128       .  S
N249        N250   1.312       .  A
N249       N1427   1.313       .  A
N250       C1730   1.336       .  A
N251       Mn253   2.201       .  S
N251        N252   1.322       .  A
N251       N1425   1.321   1_455  A
N252        C254   1.351       .  A
Mn253     Cl1457   2.566   1_455  S
C254       N1426   1.359   1_455  A
C254        C293   1.454       .  S
C255        N543   1.354       .  A
C255       N1725   1.336       .  A
C255        C282   1.426       .  S
N256       Mn264   2.264       .  S
N256        N257   1.328       .  A
N256        N262   1.318   1_545  A
N257        C265   1.363       .  A
N258       Mn866   2.214   1_545  S
N258        N260   1.308       .  A
N258        N554   1.325       .  A
N259        C266   1.360   1_556  A
N259        N553   1.325       .  A
N260       Mn264   2.112       .  S
N260        N556   1.308       .  A
N261        C266   1.333   1_556  A
N261        N555   1.308       .  A
N262       Mn866   2.168       .  S
N262        N263   1.316       .  A
N263        C265   1.343   1_565  A
Mn264      Cl867   2.492   1_545  S
C265        C285   1.443       .  S
C266        C291   1.414       .  S
N267       Mn275   2.266       .  S
N267        N268   1.328       .  A
N267        N273   1.318       .  A
N268        C573   1.363       .  A
N269       Mn276   2.214       .  S
N269        N270   1.325       .  A
N269        N271   1.308       .  A
N270        C279   1.360       .  A
N271       Mn275   2.112       .  S
N271        N272   1.308       .  A
N272        C279   1.333       .  A
N273       Mn276   2.168       .  S
N273        N274   1.316       .  A
N274        C573   1.343       .  A
Mn275      Cl277   2.492       .  S
Mn276       N848   2.214       .  S
Mn276       N852   2.168       .  S
Mn276      Cl277   2.574       .  S
Cl277     Mn1433   2.566       .  S
Cl277      Mn854   2.492       .  S
C278        N563   1.363       .  A
C278        N569   1.343       .  A
C278        C286   1.444       .  S
C279        C281   1.414       .  S
C280        C281   1.195       .  T
C282        C283   1.200   1_556  T
C284        C285   1.211       .  T
C286        C287   1.211       .  T
C288        C289   1.200       .  T
C290        C291   1.195       .  T
C292        C293   1.217       .  T
C294        C295   1.217       .  T
C296        C297   1.554       .  S
C296        C302   1.531       .  S
C296        C300   1.551       .  S
C296        C590   1.485       .  S
C297        H304   1.082       .  S
C297        C298   1.375       .  D
C298        C299   1.587       .  S
C298        C344   1.588       .  S
C299        C303   1.568       .  S
C299        C301   1.596       .  S
C299        H305   1.107       .  S
C300        H306   1.083       .  S
C300        C301   1.369       .  D
C301        C308   1.591       .  S
C302        H307   1.087       .  S
C302        C303   1.349       .  D
C303        N493   1.455       .  S
C308        C310   1.522       .  S
C308        C312   1.526       .  S
C308        C311   1.582       .  S
C309        C336   1.590       .  S
C309        C313   1.525       .  S
C309        C315   1.522       .  S
C309        C314   1.583       .  S
C310        C318   1.381       .  A
C310        C313   1.404       .  A
C311        C322   1.390   1_455  A
C311        C314   1.436       .  A
C312        C326   1.387       .  A
C312        C315   1.404       .  A
C313        C316   1.386       .  A
C314        C320   1.390   1_455  A
C315        C323   1.380       .  A
C316        N317   1.349       .  A
C316        H329   1.078       .  S
N317        C462   1.435       .  S
N317        C318   1.343       .  A
C318        H319   1.081       .  S
C320       N1501   1.367       .  A
C320       H1510   1.081       .  S
N321       C1500   1.367       .  A
N321       C1502   1.367       .  A
N321        N403   1.425       .  S
C322       N1501   1.367       .  A
C322       H1508   1.081       .  S
C323        N324   1.343       .  A
C323        H325   1.081       .  S
N324        C380   1.435       .  S
N324        C326   1.349       .  A
C326        H327   1.078       .  S
H328       C1502   1.081       .  S
H330       C1500   1.081       .  S
C331        C332   1.554       .  S
C331        C337   1.531       .  S
C331        C335   1.550       .  S
C331        C587   1.485       .  S
C332        H339   1.081       .  S
C332        C333   1.376       .  D
C333        C334   1.587       .  S
C333        C438   1.588       .  S
C334        C338   1.568       .  S
C334        C336   1.596       .  S
C334        H340   1.107       .  S
C335        H341   1.083       .  S
C335        C336   1.368       .  D
C337        H342   1.087       .  S
C337        C338   1.349       .  D
C338        N516   1.455       .  S
C343        C427   1.553       .  S
C343        C345   1.521       .  S
C343        C347   1.523       .  S
C343        C346   1.519       .  S
C344        C348   1.543       .  S
C344        C350   1.505       .  S
C344        C349   1.611       .  S
C345        C353   1.360       .  A
C345        C348   1.389       .  A
C346        C947   1.360   1_545  A
C346        C349   1.425       .  A
C347        C361   1.363       .  A
C347        C350   1.404       .  A
C348        C351   1.385       .  A
C349        C355   1.408       .  A
C350        C358   1.359       .  A
C351        N352   1.352       .  A
C351        H364   1.065       .  S
N352        C373   1.443       .  S
N352        C353   1.348       .  A
C353        H354   1.076       .  S
C355        N946   1.375   1_545  A
C355        H955   1.080   1_545  S
N356        C945   1.375       .  A
N356        C357   1.351       .  A
N356        N450   1.415       .  S
C357        C936   1.360       .  A
C357        H363   1.081       .  S
C358        N359   1.340       .  A
C358        H360   1.070       .  S
N359        C383   1.409       .  S
N359        C361   1.335       .  A
C361        H362   1.079       .  S
H365        C945   1.080       .  S
C366        C367   1.535       .  S
C366        C372   1.521       .  S
C366        C370   1.546       .  S
C366        C585   1.445       .  S
C367        H374   1.084       .  S
C367        C368   1.357       .  D
C368        C369   1.588       .  S
C368        C485   1.556       .  S
C369        C373   1.545       .  S
C369        C371   1.592       .  S
C369        H375   1.110       .  S
C370        H376   1.084       .  S
C370        C371   1.368       .  D
C371        C391   1.566       .  S
C372        H377   1.088       .  S
C372        C373   1.348       .  D
C378        C379   1.552       .  S
C378        C384   1.549       .  S
C378        C382   1.528       .  S
C378        C583   1.451       .  S
C379        H386   1.085       .  S
C379        C380   1.367       .  D
C380        C381   1.517       .  S
C381        C385   1.544       .  S
C381        C383   1.518       .  S
C381        H387   1.112       .  S
C382        H388   1.088       .  S
C382        C383   1.338       .  D
C384        H389   1.080       .  S
C384        C385   1.373       .  D
C385        C507   1.525       .  S
C390        C474   1.566       .  S
C390        C392   1.520       .  S
C390        C394   1.513       .  S
C390        C393   1.580       .  S
C391        C395   1.513       .  S
C391        C397   1.519       .  S
C391        C396   1.579       .  S
C392        C400   1.379       .  A
C392        C395   1.397       .  A
C393        C404   1.390       .  A
C393        C396   1.433       .  A
C394        C408   1.378       .  A
C394        C397   1.397       .  A
C395        C398   1.377       .  A
C396        C402   1.389       .  A
C397        C405   1.379       .  A
C398        N399   1.343       .  A
C398        H411   1.076       .  S
N399        C418   1.425       .  S
N399        C400   1.341       .  A
C400        H401   1.080       .  S
C402        N403   1.367       .  A
C402        H412   1.081       .  S
N403        C404   1.368       .  A
C404        H410   1.081       .  S
C405        N406   1.341       .  A
C405        H407   1.080       .  S
N406        C430   1.426       .  S
N406        C408   1.343       .  A
C408        H409   1.077       .  S
C413        C414   1.568       .  S
C413        C419   1.536       .  S
C413        C417   1.541       .  S
C413        C582   1.472       .  S
C414        H421   1.083       .  S
C414        C415   1.384       .  D
C415        C416   1.548       .  S
C415        C437   1.554       .  S
C416        C420   1.526       .  S
C416        C418   1.518       .  S
C416        H422   1.112       .  S
C417        H423   1.086       .  S
C417        C418   1.358       .  D
C419        H424   1.087       .  S
C419        C420   1.349       .  D
C420        N500   1.427       .  S
C425        C426   1.568       .  S
C425        C431   1.536       .  S
C425        C429   1.540       .  S
C425        C579   1.471       .  S
C426        H433   1.083       .  S
C426        C427   1.383       .  D
C427        C428   1.548       .  S
C428        C432   1.526       .  S
C428        C430   1.519       .  S
C428        H434   1.112       .  S
C429        H435   1.086       .  S
C429        C430   1.357       .  D
C431        H436   1.087       .  S
C431        C432   1.349       .  D
C432        N523   1.426       .  S
C437        C439   1.522       .  S
C437        C441   1.524       .  S
C437        C440   1.520       .  S
C438        C442   1.542       .  S
C438        C444   1.505       .  S
C438        C443   1.610       .  S
C439        C447   1.360       .  A
C439        C442   1.389       .  A
C440        C451   1.360       .  A
C440        C443   1.425       .  A
C441        C455   1.363       .  A
C441        C444   1.404       .  A
C442        C445   1.385       .  A
C443        C449   1.408       .  A
C444        C452   1.359       .  A
C445        N446   1.351       .  A
C445        H458   1.065       .  S
N446        C477   1.443       .  S
N446        C447   1.348       .  A
C447        H448   1.076       .  S
C449        N450   1.375       .  A
C449        H459   1.080       .  S
N450        C451   1.351       .  A
C451        H457   1.081       .  S
C452        N453   1.340       .  A
C452        H454   1.071       .  S
N453        C465   1.409       .  S
N453        C455   1.335       .  A
C455        H456   1.079       .  S
C460        C461   1.552       .  S
C460        C466   1.548       .  S
C460        C464   1.528       .  S
C460        C578   1.451       .  S
C461        H468   1.085       .  S
C461        C462   1.368       .  D
C462        C463   1.518       .  S
C463        C467   1.543       .  S
C463        C465   1.518       .  S
C463        H469   1.112       .  S
C464        H470   1.088       .  S
C464        C465   1.338       .  D
C466        H471   1.080       .  S
C466        C467   1.372       .  D
C467        C484   1.525       .  S
C472        C473   1.546       .  S
C472        C478   1.534       .  S
C472        C476   1.521       .  S
C472        C575   1.445       .  S
C473        H480   1.084       .  S
C473        C474   1.368       .  D
C474        C475   1.592       .  S
C475        C479   1.588       .  S
C475        C477   1.545       .  S
C475        H481   1.110       .  S
C476        H482   1.088       .  S
C476        C477   1.348       .  D
C478        H483   1.084       .  S
C478        C479   1.357       .  D
C479        C508   1.556       .  S
C484        C486   1.514       .  S
C484        C488   1.513       .  S
C484        C487   1.535       .  S
C485        C489   1.542       .  S
C485        C491   1.528       .  S
C485        C490   1.588       .  S
C486        C494   1.367       .  A
C486        C489   1.375       .  A
C487        C490   1.421       .  A
C488        C502   1.370       .  A
C488        C491   1.395       .  A
C489        C492   1.383       .  A
C491        C499   1.374       .  A
C492        N493   1.366       .  A
C492        H505   1.077       .  S
N493        C494   1.350       .  A
C494        H495   1.070       .  S
C496        N497   1.372       .  A
C496        H506   1.081       .  S
N497        C498   1.352       .  A
N497        N520   1.413       .  S
C498        H504   1.079       .  S
C499        N500   1.348       .  A
C499        H501   1.072       .  S
N500        C502   1.338       .  A
C502        H503   1.079       .  S
C507        C509   1.515       .  S
C507        C511   1.513       .  S
C507        C510   1.536       .  S
C508        C512   1.542       .  S
C508        C514   1.527       .  S
C508        C513   1.588       .  S
C509        C517   1.367       .  A
C509        C512   1.375       .  A
C510        C521   1.366       .  A
C510        C513   1.421       .  A
C511        C525   1.370       .  A
C511        C514   1.394       .  A
C512        C515   1.383       .  A
C513        C519   1.401       .  A
C514        C522   1.373       .  A
C515        N516   1.365       .  A
C515        H528   1.077       .  S
N516        C517   1.350       .  A
C517        H518   1.070       .  S
C519        N520   1.371       .  A
C519        H529   1.081       .  S
N520        C521   1.353       .  A
C521        H527   1.079       .  S
C522        N523   1.348       .  A
C522        H524   1.072       .  S
N523        C525   1.338       .  A
C525        H526   1.079       .  S
N530       Mn559   2.267       .  S
N530       N1416   1.327   1_556  A
N530       N2306   1.321       .  A
N531        C538   1.359   1_655  A
N531       N1415   1.327       .  A
N532       Mn548   2.212       .  S
N532       N2304   1.313   1_455  A
N532       N1123   1.324       .  A
N533        C539   1.354       .  A
N533       N1122   1.324       .  A
N534       Mn559   2.127       .  S
N534       N2302   1.313       .  A
N534       N1715   1.312       .  A
N535        C539   1.336       .  A
N535       N1714   1.312   1_455  A
N536       Mn548   2.203       .  S
N536       N2300   1.321   1_455  A
N536        N832   1.322   1_556  A
N537        C538   1.352       .  A
N537        N831   1.322       .  A
C538        C589   1.455       .  S
C539        C584   1.426       .  S
N540       Mn570   2.267       .  S
N540       N1726   1.321       .  A
N540        N541   1.327       .  A
N541       C1729   1.359       .  A
N542       Mn548   2.212       .  S
N542        N543   1.324       .  A
N542       N1724   1.313   1_455  A
N544       Mn570   2.128       .  S
N544       N1722   1.313       .  A
N544        N545   1.312       .  A
N545       C1435   1.336       .  A
N546       Mn548   2.201       .  S
N546       N1720   1.321   1_455  A
N546        N547   1.322       .  A
N547        C549   1.351       .  A
Mn548     Cl1752   2.566   1_455  S
C549       N1721   1.359   1_455  A
C549        C588   1.454       .  S
C550       N1430   1.336       .  A
C550        C577   1.426       .  S
N551       Mn559   2.264       .  S
N551        N552   1.328       .  A
N551        N557   1.318   1_545  A
N552        C560   1.363       .  A
N553      Mn1161   2.214   1_545  S
N553        N555   1.308       .  A
N554        C561   1.360       .  A
N555       Mn559   2.112       .  S
N556        C561   1.333       .  A
N557      Mn1161   2.168       .  S
N557        N558   1.316       .  A
N558        C560   1.343   1_565  A
Mn559     Cl1162   2.492   1_545  S
C560        C580   1.443       .  S
C561        C586   1.414       .  S
N562       Mn570   2.266       .  S
N562        N563   1.328   1_556  A
N562        N568   1.318       .  A
N564       Mn571   2.214       .  S
N564        N565   1.325       .  A
N564        N566   1.308       .  A
N565        C574   1.360       .  A
N566       Mn570   2.112       .  S
N566        N567   1.308       .  A
N567        C574   1.333       .  A
N568       Mn571   2.168       .  S
N568        N569   1.316   1_556  A
Mn570      Cl572   2.492       .  S
Mn571      N1143   2.214       .  S
Mn571      N1147   2.168       .  S
Mn571      Cl572   2.574       .  S
Cl572     Mn1728   2.566       .  S
Cl572     Mn1149   2.492       .  S
C573        C581   1.444       .  S
C574        C576   1.414       .  S
C575        C576   1.195       .  T
C577        C578   1.200       .  T
C579        C580   1.211       .  T
C581        C582   1.211       .  T
C583        C584   1.200       .  T
C585        C586   1.195       .  T
C587        C588   1.217       .  T
C589        C590   1.217       .  T
C591        C592   1.554       .  S
C591        C597   1.531       .  S
C591        C595   1.551       .  S
C591        C885   1.485       .  S
C592        H599   1.082       .  S
C592        C593   1.375       .  D
C593        C594   1.587       .  S
C593        C639   1.588       .  S
C594        C598   1.567       .  S
C594        C596   1.596       .  S
C594        H600   1.107       .  S
C595        H601   1.083       .  S
C595        C596   1.369       .  D
C596        C603   1.591       .  S
C597        H602   1.087       .  S
C597        C598   1.349       .  D
C598        N788   1.455       .  S
C603        C605   1.522       .  S
C603        C607   1.526       .  S
C603        C606   1.582       .  S
C604        C631   1.590       .  S
C604        C608   1.525       .  S
C604        C610   1.522       .  S
C604        C609   1.583       .  S
C605        C613   1.381       .  A
C605        C608   1.404       .  A
C606        C617   1.390   1_455  A
C606        C609   1.436       .  A
C607        C621   1.387       .  A
C607        C610   1.404       .  A
C608        C611   1.386       .  A
C609        C615   1.390   1_455  A
C610        C618   1.380       .  A
C611        N612   1.349       .  A
C611        H624   1.078       .  S
N612        C757   1.435       .  S
N612        C613   1.343       .  A
C613        H614   1.081       .  S
C615       N1796   1.367       .  A
C615       H1805   1.081       .  S
N616       C1795   1.367       .  A
N616       C1797   1.367       .  A
N616        N698   1.425       .  S
C617       N1796   1.367       .  A
C617       H1803   1.081       .  S
C618        N619   1.343       .  A
C618        H620   1.081       .  S
N619        C675   1.435       .  S
N619        C621   1.349       .  A
C621        H622   1.078       .  S
H623       C1797   1.081       .  S
H625       C1795   1.081       .  S
C626        C627   1.554       .  S
C626        C632   1.531       .  S
C626        C630   1.550       .  S
C626        C882   1.485       .  S
C627        H634   1.081       .  S
C627        C628   1.376       .  D
C628        C629   1.587       .  S
C628        C733   1.588       .  S
C629        C633   1.568       .  S
C629        C631   1.596       .  S
C629        H635   1.107       .  S
C630        H636   1.083       .  S
C630        C631   1.368       .  D
C632        H637   1.087       .  S
C632        C633   1.349       .  D
C633        N811   1.455       .  S
C638        C722   1.553       .  S
C638        C640   1.522       .  S
C638        C642   1.523       .  S
C638        C641   1.519       .  S
C639        C643   1.543       .  S
C639        C645   1.505       .  S
C639        C644   1.611       .  S
C640        C648   1.360       .  A
C640        C643   1.389       .  A
C641        C644   1.425       .  A
C642        C656   1.363       .  A
C642        C645   1.404       .  A
C643        C646   1.385       .  A
C644        C650   1.408       .  A
C645        C653   1.359       .  A
C646        N647   1.352       .  A
C646        H659   1.065       .  S
N647        C668   1.443       .  S
N647        C648   1.348       .  A
C648        H649   1.076       .  S
N651        C652   1.351       .  A
N651        N745   1.415       .  S
C652        H658   1.081       .  S
C653        N654   1.340       .  A
C653        H655   1.070       .  S
N654        C678   1.409       .  S
N654        C656   1.335       .  A
C656        H657   1.079       .  S
C661        C662   1.535       .  S
C661        C667   1.521       .  S
C661        C665   1.546       .  S
C661        C880   1.445       .  S
C662        H669   1.084       .  S
C662        C663   1.357       .  D
C663        C664   1.588       .  S
C663        C780   1.556       .  S
C664        C668   1.545       .  S
C664        C666   1.592       .  S
C664        H670   1.110       .  S
C665        H671   1.084       .  S
C665        C666   1.368       .  D
C666        C686   1.566       .  S
C667        H672   1.088       .  S
C667        C668   1.348       .  D
C673        C674   1.552       .  S
C673        C679   1.549       .  S
C673        C677   1.528       .  S
C673        C878   1.451       .  S
C674        H681   1.085       .  S
C674        C675   1.368       .  D
C675        C676   1.517       .  S
C676        C680   1.544       .  S
C676        C678   1.518       .  S
C676        H682   1.112       .  S
C677        H683   1.088       .  S
C677        C678   1.338       .  D
C679        H684   1.080       .  S
C679        C680   1.373       .  D
C680        C802   1.525       .  S
C685        C769   1.566       .  S
C685        C687   1.520       .  S
C685        C689   1.513       .  S
C685        C688   1.580       .  S
C686        C690   1.513       .  S
C686        C692   1.519       .  S
C686        C691   1.579       .  S
C687        C695   1.379       .  A
C687        C690   1.397       .  A
C688        C699   1.390       .  A
C688        C691   1.433       .  A
C689        C703   1.378       .  A
C689        C692   1.397       .  A
C690        C693   1.377       .  A
C691        C697   1.389       .  A
C692        C700   1.379       .  A
C693        N694   1.343       .  A
C693        H706   1.076       .  S
N694        C713   1.425       .  S
N694        C695   1.341       .  A
C695        H696   1.080       .  S
C697        N698   1.367       .  A
C697        H707   1.081       .  S
N698        C699   1.368       .  A
C699        H705   1.081       .  S
C700        N701   1.341       .  A
C700        H702   1.080       .  S
N701        C725   1.426       .  S
N701        C703   1.343       .  A
C703        H704   1.077       .  S
C708        C709   1.568       .  S
C708        C714   1.536       .  S
C708        C712   1.541       .  S
C708        C877   1.472       .  S
C709        H716   1.083       .  S
C709        C710   1.384       .  D
C710        C711   1.548       .  S
C710        C732   1.554       .  S
C711        C715   1.526       .  S
C711        C713   1.518       .  S
C711        H717   1.112       .  S
C712        H718   1.086       .  S
C712        C713   1.358       .  D
C714        H719   1.087       .  S
C714        C715   1.349       .  D
C715        N795   1.427       .  S
C720        C721   1.568       .  S
C720        C726   1.536       .  S
C720        C724   1.540       .  S
C720        C874   1.471       .  S
C721        H728   1.083       .  S
C721        C722   1.383       .  D
C722        C723   1.548       .  S
C723        C727   1.526       .  S
C723        C725   1.519       .  S
C723        H729   1.112       .  S
C724        H730   1.086       .  S
C724        C725   1.357       .  D
C726        H731   1.087       .  S
C726        C727   1.349       .  D
C727        N818   1.426       .  S
C732        C734   1.522       .  S
C732        C736   1.524       .  S
C732        C735   1.520       .  S
C733        C737   1.542       .  S
C733        C739   1.505       .  S
C733        C738   1.610       .  S
C734        C742   1.360       .  A
C734        C737   1.389       .  A
C735        C746   1.360       .  A
C735        C738   1.425       .  A
C736        C750   1.363       .  A
C736        C739   1.404       .  A
C737        C740   1.385       .  A
C738        C744   1.408       .  A
C739        C747   1.359       .  A
C740        N741   1.351       .  A
C740        H753   1.065       .  S
N741        C772   1.443       .  S
N741        C742   1.348       .  A
C742        H743   1.076       .  S
C744        N745   1.375       .  A
C744        H754   1.080       .  S
N745        C746   1.351       .  A
C746        H752   1.081       .  S
C747        N748   1.340       .  A
C747        H749   1.071       .  S
N748        C760   1.409       .  S
N748        C750   1.335       .  A
C750        H751   1.079       .  S
C755        C756   1.552       .  S
C755        C761   1.548       .  S
C755        C759   1.528       .  S
C755        C873   1.451       .  S
C756        H763   1.085       .  S
C756        C757   1.368       .  D
C757        C758   1.518       .  S
C758        C762   1.543       .  S
C758        C760   1.518       .  S
C758        H764   1.112       .  S
C759        H765   1.088       .  S
C759        C760   1.338       .  D
C761        H766   1.080   1_554  S
C761        C762   1.372       .  D
C762        C779   1.525       .  S
C767        C768   1.546       .  S
C767        C773   1.534       .  S
C767        C771   1.521       .  S
C767        C870   1.445       .  S
C768        H775   1.084       .  S
C768        C769   1.368       .  D
C769        C770   1.592       .  S
C770        C774   1.588       .  S
C770        C772   1.545       .  S
C770        H776   1.110       .  S
C771        H777   1.088       .  S
C771        C772   1.348       .  D
C773        H778   1.084       .  S
C773        C774   1.357       .  D
C774        C803   1.556       .  S
C779        C781   1.514       .  S
C779        C783   1.513       .  S
C779        C782   1.535       .  S
C780        C784   1.542       .  S
C780        C786   1.528       .  S
C780        C785   1.588       .  S
C781        C789   1.367       .  A
C781        C784   1.375       .  A
C782       C1088   1.365   1_554  A
C782        C785   1.421       .  A
C783        C797   1.370       .  A
C783        C786   1.395       .  A
C784        C787   1.383       .  A
C785       C1086   1.402   1_554  A
C786        C794   1.374       .  A
C787        N788   1.366       .  A
C787        H800   1.077       .  S
N788        C789   1.350       .  A
C789        H790   1.070       .  S
C791       C1080   1.402       .  A
C791        N792   1.372       .  A
C791        H801   1.081       .  S
N792        C793   1.352       .  A
N792        N815   1.413       .  S
C793       C1077   1.365       .  A
C793        H799   1.079       .  S
C794        N795   1.348       .  A
C794        H796   1.072       .  S
N795        C797   1.338       .  A
C797        H798   1.079       .  S
C802        C804   1.515       .  S
C802        C806   1.513       .  S
C802        C805   1.536       .  S
C803        C807   1.542       .  S
C803        C809   1.527       .  S
C803        C808   1.588       .  S
C804        C812   1.367       .  A
C804        C807   1.375       .  A
C805        C816   1.366       .  A
C805        C808   1.421       .  A
C806        C820   1.370       .  A
C806        C809   1.394       .  A
C807        C810   1.383       .  A
C808        C814   1.401       .  A
C809        C817   1.373       .  A
C810        N811   1.365       .  A
C810        H823   1.077       .  S
N811        C812   1.350       .  A
C812        H813   1.070       .  S
C814        N815   1.371       .  A
C814        H824   1.081       .  S
N815        C816   1.353       .  A
C816        H822   1.079       .  S
C817        N818   1.348       .  A
C817        H819   1.072       .  S
N818        C820   1.338       .  A
C820        H821   1.079       .  S
N825       Mn854   2.267       .  S
N825       N2301   1.327       .  A
N825       N1421   1.321       .  A
N826        C833   1.359   1_655  A
N826       N2300   1.327   1_554  A
N827       Mn843   2.212   1_545  S
N827       N1419   1.313   1_455  A
N828        C834   1.354       .  A
N829       Mn854   2.127       .  S
N829       N1417   1.313       .  A
N829       N2010   1.312       .  A
N830        C834   1.336       .  A
N830       N2009   1.312   1_455  A
N831       Mn843   2.203   1_545  S
N831       N1415   1.321   1_455  A
N832        C833   1.352       .  A
C833        C884   1.455       .  S
C834        C879   1.426       .  S
N835       Mn865   2.268       .  S
N835       N2021   1.321       .  A
N835        N836   1.327       .  A
N836       C2024   1.359       .  A
N837       Mn843   2.212       .  S
N837        N838   1.324       .  A
N837       N2019   1.313   1_455  A
N838       C1140   1.354       .  A
N839       Mn865   2.128       .  S
N839       N2017   1.313       .  A
N839        N840   1.312       .  A
N840       C2320   1.336       .  A
N841       Mn843   2.201       .  S
N841       N2015   1.321   1_455  A
N841        N842   1.322       .  A
N842        C844   1.351       .  A
Mn843     Cl2047   2.566   1_455  S
C844       N2016   1.359   1_455  A
C844        C883   1.454       .  S
C845       N1133   1.354       .  A
C845       N2315   1.336       .  A
C845        C872   1.426       .  S
N846       Mn854   2.264       .  S
N846        N847   1.328       .  A
N846        N852   1.318       .  A
N847        C855   1.363       .  A
N848        N850   1.308       .  A
N848       N1144   1.325       .  A
N849        C856   1.360   1_556  A
N849       N1143   1.325       .  A
N850       Mn854   2.112       .  S
N850       N1146   1.308       .  A
N851        C856   1.333   1_556  A
N851       N1145   1.308       .  A
N852        N853   1.316       .  A
N853        C855   1.343       .  A
C855        C875   1.443       .  S
C856        C881   1.414       .  S
N857       Mn865   2.266       .  S
N857        N858   1.328       .  A
N857        N863   1.318       .  A
N858       C1163   1.363       .  A
N859       Mn866   2.214       .  S
N859        N860   1.325       .  A
N859        N861   1.308       .  A
N860        C869   1.360       .  A
N861       Mn865   2.112       .  S
N861        N862   1.308       .  A
N862        C869   1.333       .  A
N863       Mn866   2.168       .  S
N863        N864   1.316       .  A
N864       C1163   1.343       .  A
Mn865      Cl867   2.492       .  S
Mn866      Cl867   2.574       .  S
Cl867     Mn2023   2.566       .  S
C868       N1153   1.363       .  A
C868       N1159   1.343       .  A
C868        C876   1.444       .  S
C869        C871   1.414       .  S
C870        C871   1.196       .  T
C872        C873   1.200   1_556  T
C874        C875   1.211       .  T
C876        C877   1.211       .  T
C878        C879   1.200       .  T
C880        C881   1.195       .  T
C882        C883   1.217       .  T
C884        C885   1.217       .  T
C886        C887   1.554       .  S
C886        C892   1.531       .  S
C886        C890   1.551       .  S
C886       C1180   1.485       .  S
C887        H894   1.082       .  S
C887        C888   1.375       .  D
C888        C889   1.587       .  S
C888        C934   1.588       .  S
C889        C893   1.568       .  S
C889        C891   1.596       .  S
C889        H895   1.107       .  S
C890        H896   1.083       .  S
C890        C891   1.369       .  D
C891        C898   1.591       .  S
C892        H897   1.087       .  S
C892        C893   1.349       .  D
C893       N1083   1.455       .  S
C898        C900   1.522       .  S
C898        C902   1.526       .  S
C898        C901   1.582       .  S
C899        C926   1.590       .  S
C899        C903   1.525       .  S
C899        C905   1.522       .  S
C899        C904   1.583       .  S
C900        C908   1.381       .  A
C900        C903   1.404       .  A
C901        C912   1.390   1_455  A
C901        C904   1.436       .  A
C902        C916   1.387       .  A
C902        C905   1.404       .  A
C903        C906   1.386       .  A
C904        C910   1.390   1_455  A
C905        C913   1.380       .  A
C906        N907   1.349       .  A
C906        H919   1.078       .  S
N907       C1052   1.435       .  S
N907        C908   1.343       .  A
C908        H909   1.081       .  S
C910       N2091   1.367       .  A
C910       H2100   1.081       .  S
N911       C2090   1.367       .  A
N911       C2092   1.367       .  A
N911        N993   1.425       .  S
C912       N2091   1.367       .  A
C912       H2098   1.081       .  S
C913        N914   1.343       .  A
C913        H915   1.081       .  S
N914        C970   1.435       .  S
N914        C916   1.349       .  A
C916        H917   1.078       .  S
H918       C2092   1.081       .  S
H920       C2090   1.081       .  S
C921        C922   1.554       .  S
C921        C927   1.531       .  S
C921        C925   1.550       .  S
C921       C1177   1.485       .  S
C922        H929   1.081       .  S
C922        C923   1.376       .  D
C923        C924   1.587       .  S
C923       C1028   1.588       .  S
C924        C928   1.568       .  S
C924        C926   1.596       .  S
C924        H930   1.107       .  S
C925        H931   1.083       .  S
C925        C926   1.368       .  D
C927        H932   1.087       .  S
C927        C928   1.349       .  D
C928       N1106   1.455       .  S
C933       C1017   1.553       .  S
C933        C935   1.521       .  S
C933        C937   1.523       .  S
C933        C936   1.519       .  S
C934        C938   1.543       .  S
C934        C940   1.505       .  S
C934        C939   1.611       .  S
C935        C943   1.360       .  A
C935        C938   1.389       .  A
C936        C939   1.425       .  A
C937        C951   1.363       .  A
C937        C940   1.404       .  A
C938        C941   1.385       .  A
C939        C945   1.408       .  A
C940        C948   1.359       .  A
C941        N942   1.352       .  A
C941        H954   1.065       .  S
N942        C963   1.443       .  S
N942        C943   1.348       .  A
C943        H944   1.076       .  S
N946        C947   1.351       .  A
N946       N1040   1.415       .  S
C947        H953   1.081       .  S
C948        N949   1.340       .  A
C948        H950   1.070       .  S
N949        C973   1.409       .  S
N949        C951   1.335       .  A
C951        H952   1.079       .  S
C956        C957   1.535       .  S
C956        C962   1.521       .  S
C956        C960   1.546       .  S
C956       C1175   1.445       .  S
C957        H964   1.084       .  S
C957        C958   1.357       .  D
C958        C959   1.588       .  S
C958       C1075   1.556       .  S
C959        C963   1.545       .  S
C959        C961   1.592       .  S
C959        H965   1.110       .  S
C960        H966   1.084       .  S
C960        C961   1.368       .  D
C961        C981   1.566       .  S
C962        H967   1.088       .  S
C962        C963   1.348       .  D
C968        C969   1.552       .  S
C968        C974   1.549       .  S
C968        C972   1.528       .  S
C968       C1173   1.451       .  S
C969        H976   1.085       .  S
C969        C970   1.367       .  D
C970        C971   1.517       .  S
C971        C975   1.544       .  S
C971        C973   1.518       .  S
C971        H977   1.112       .  S
C972        H978   1.088       .  S
C972        C973   1.338       .  D
C974        H979   1.080       .  S
C974        C975   1.373       .  D
C975       C1097   1.525       .  S
C980       C1064   1.566       .  S
C980        C982   1.520       .  S
C980        C984   1.513       .  S
C980        C983   1.580       .  S
C981        C985   1.513       .  S
C981        C987   1.519       .  S
C981        C986   1.579       .  S
C982        C990   1.379       .  A
C982        C985   1.397       .  A
C983        C994   1.390       .  A
C983        C986   1.433       .  A
C984        C998   1.378       .  A
C984        C987   1.397       .  A
C985        C988   1.377       .  A
C986        C992   1.389       .  A
C987        C995   1.379       .  A
C988        N989   1.343       .  A
C988       H1001   1.076       .  S
N989       C1008   1.425       .  S
N989        C990   1.341       .  A
C990        H991   1.080       .  S
C992        N993   1.367       .  A
C992       H1002   1.081       .  S
N993        C994   1.368       .  A
C994       H1000   1.081       .  S
C995        N996   1.341       .  A
C995        H997   1.080       .  S
N996       C1020   1.426       .  S
N996        C998   1.343       .  A
C998        H999   1.077       .  S
C1003      C1004   1.568       .  S
C1003      C1009   1.536       .  S
C1003      C1007   1.541       .  S
C1003      C1172   1.472       .  S
C1004      H1011   1.083       .  S
C1004      C1005   1.384       .  D
C1005      C1006   1.548       .  S
C1005      C1027   1.554       .  S
C1006      C1010   1.526       .  S
C1006      C1008   1.518       .  S
C1006      H1012   1.112       .  S
C1007      H1013   1.086       .  S
C1007      C1008   1.358       .  D
C1009      H1014   1.087       .  S
C1009      C1010   1.349       .  D
C1010      N1090   1.427       .  S
C1015      C1016   1.568       .  S
C1015      C1021   1.536       .  S
C1015      C1019   1.540       .  S
C1015      C1169   1.471       .  S
C1016      H1023   1.083       .  S
C1016      C1017   1.383       .  D
C1017      C1018   1.548       .  S
C1018      C1022   1.526       .  S
C1018      C1020   1.519       .  S
C1018      H1024   1.112       .  S
C1019      H1025   1.086       .  S
C1019      C1020   1.357       .  D
C1021      H1026   1.087       .  S
C1021      C1022   1.349       .  D
C1022      N1113   1.426       .  S
C1027      C1029   1.522       .  S
C1027      C1031   1.524       .  S
C1027      C1030   1.520       .  S
C1028      C1032   1.542       .  S
C1028      C1034   1.505       .  S
C1028      C1033   1.610       .  S
C1029      C1037   1.360       .  A
C1029      C1032   1.389       .  A
C1030      C1041   1.360       .  A
C1030      C1033   1.425       .  A
C1031      C1045   1.363       .  A
C1031      C1034   1.404       .  A
C1032      C1035   1.385       .  A
C1033      C1039   1.408       .  A
C1034      C1042   1.359       .  A
C1035      N1036   1.351       .  A
C1035      H1048   1.065       .  S
N1036      C1067   1.443       .  S
N1036      C1037   1.348       .  A
C1037      H1038   1.076       .  S
C1039      N1040   1.375       .  A
C1039      H1049   1.080       .  S
N1040      C1041   1.351       .  A
C1041      H1047   1.081       .  S
C1042      N1043   1.340       .  A
C1042      H1044   1.071       .  S
N1043      C1055   1.409       .  S
N1043      C1045   1.335       .  A
C1045      H1046   1.079       .  S
C1050      C1051   1.552       .  S
C1050      C1056   1.548       .  S
C1050      C1054   1.528       .  S
C1050      C1168   1.451       .  S
C1051      H1058   1.085       .  S
C1051      C1052   1.368       .  D
C1052      C1053   1.518       .  S
C1053      C1057   1.543       .  S
C1053      C1055   1.518       .  S
C1053      H1059   1.112       .  S
C1054      H1060   1.088       .  S
C1054      C1055   1.338       .  D
C1056      H1061   1.080       .  S
C1056      C1057   1.372       .  D
C1057      C1074   1.525       .  S
C1062      C1063   1.546       .  S
C1062      C1068   1.534       .  S
C1062      C1066   1.521       .  S
C1062      C1165   1.445       .  S
C1063      H1070   1.084       .  S
C1063      C1064   1.368       .  D
C1064      C1065   1.592       .  S
C1065      C1069   1.588       .  S
C1065      C1067   1.545       .  S
C1065      H1071   1.110       .  S
C1066      H1072   1.088       .  S
C1066      C1067   1.348       .  D
C1068      H1073   1.084       .  S
C1068      C1069   1.357       .  D
C1069      C1098   1.556       .  S
C1074      C1076   1.514       .  S
C1074      C1078   1.513       .  S
C1074      C1077   1.535       .  S
C1075      C1079   1.542       .  S
C1075      C1081   1.528       .  S
C1075      C1080   1.588       .  S
C1076      C1084   1.367       .  A
C1076      C1079   1.375       .  A
C1077      C1080   1.421       .  A
C1078      C1092   1.370       .  A
C1078      C1081   1.395       .  A
C1079      C1082   1.383       .  A
C1081      C1089   1.374       .  A
C1082      N1083   1.366       .  A
C1082      H1095   1.077       .  S
N1083      C1084   1.350       .  A
C1084      H1085   1.070       .  S
C1086      N1087   1.372       .  A
C1086      H1096   1.081       .  S
N1087      C1088   1.352       .  A
N1087      N1110   1.413       .  S
C1088      H1094   1.079       .  S
C1089      N1090   1.348       .  A
C1089      H1091   1.072       .  S
N1090      C1092   1.338       .  A
C1092      H1093   1.079       .  S
C1097      C1099   1.515       .  S
C1097      C1101   1.513       .  S
C1097      C1100   1.536       .  S
C1098      C1102   1.542       .  S
C1098      C1104   1.527       .  S
C1098      C1103   1.588       .  S
C1099      C1107   1.367       .  A
C1099      C1102   1.375       .  A
C1100      C1111   1.366       .  A
C1100      C1103   1.421       .  A
C1101      C1115   1.370       .  A
C1101      C1104   1.394       .  A
C1102      C1105   1.383       .  A
C1103      C1109   1.401       .  A
C1104      C1112   1.373       .  A
C1105      N1106   1.365       .  A
C1105      H1118   1.077       .  S
N1106      C1107   1.350       .  A
C1107      H1108   1.070       .  S
C1109      N1110   1.371       .  A
C1109      H1119   1.081       .  S
N1110      C1111   1.353       .  A
C1111      H1117   1.079       .  S
C1112      N1113   1.348       .  A
C1112      H1114   1.072       .  S
N1113      C1115   1.338       .  A
C1115      H1116   1.079       .  S
N1120     Mn1149   2.267       .  S
N1120      N2006   1.327   1_556  A
N1120      N1716   1.321       .  A
N1121      C1128   1.359   1_655  A
N1121      N2005   1.327       .  A
N1122     Mn1138   2.212   1_545  S
N1122      N1714   1.313   1_455  A
N1123      C1129   1.354       .  A
N1124     Mn1149   2.127       .  S
N1124      N1712   1.313       .  A
N1124      N2305   1.312       .  A
N1125      C1129   1.336       .  A
N1125      N2304   1.312   1_455  A
N1126     Mn1138   2.203   1_545  S
N1126      N1710   1.321   1_455  A
N1127      C1128   1.352       .  A
C1128      C1179   1.455       .  S
C1129      C1174   1.426       .  S
N1130     Mn1160   2.267       .  S
N1130      N2316   1.321       .  A
N1130      N1131   1.327       .  A
N1131      C2319   1.359       .  A
N1132     Mn1138   2.212       .  S
N1132      N1133   1.324       .  A
N1132      N2314   1.313   1_455  A
N1134     Mn1160   2.128       .  S
N1134      N2312   1.313       .  A
N1134      N1135   1.312       .  A
N1135      C2025   1.336       .  A
N1136     Mn1138   2.201       .  S
N1136      N2310   1.321   1_455  A
N1136      N1137   1.322       .  A
N1137      C1139   1.351       .  A
Mn1138    Cl2342   2.566   1_455  S
C1139      N2311   1.359   1_455  A
C1139      C1178   1.454       .  S
C1140      N2020   1.336       .  A
C1140      C1167   1.426       .  S
N1141     Mn1149   2.264       .  S
N1141      N1142   1.328       .  A
N1141      N1147   1.318       .  A
N1142      C1150   1.363       .  A
N1143      N1145   1.308       .  A
N1144      C1151   1.360       .  A
N1145     Mn1149   2.112       .  S
N1146      C1151   1.333       .  A
N1147      N1148   1.316       .  A
N1148      C1150   1.343       .  A
C1150      C1170   1.443       .  S
C1151      C1176   1.414       .  S
N1152     Mn1160   2.266       .  S
N1152      N1153   1.328   1_556  A
N1152      N1158   1.318       .  A
N1154     Mn1161   2.214       .  S
N1154      N1155   1.325       .  A
N1154      N1156   1.308       .  A
N1155      C1164   1.360       .  A
N1156     Mn1160   2.112       .  S
N1156      N1157   1.308       .  A
N1157      C1164   1.333       .  A
N1158     Mn1161   2.168       .  S
N1158      N1159   1.316   1_556  A
Mn1160    Cl1162   2.492       .  S
Mn1161    Cl1162   2.574       .  S
Cl1162    Mn2318   2.566       .  S
C1163      C1171   1.444       .  S
C1164      C1166   1.414       .  S
C1165      C1166   1.195       .  T
C1167      C1168   1.200       .  T
C1169      C1170   1.211       .  T
C1171      C1172   1.211       .  T
C1173      C1174   1.200       .  T
C1175      C1176   1.195       .  T
C1177      C1178   1.217       .  T
C1179      C1180   1.217       .  T
C1181      C1182   1.554       .  S
C1181      C1187   1.531       .  S
C1181      C1185   1.551       .  S
C1181      C1475   1.486       .  S
C1182      H1189   1.082       .  S
C1182      C1183   1.376       .  D
C1183      C1184   1.587       .  S
C1183      C1229   1.588       .  S
C1184      C1188   1.568       .  S
C1184      C1186   1.596       .  S
C1184      H1190   1.107       .  S
C1185      H1191   1.083       .  S
C1185      C1186   1.369       .  D
C1186      C1193   1.591       .  S
C1187      H1192   1.087       .  S
C1187      C1188   1.349       .  D
C1188      N1378   1.455       .  S
C1193      C1195   1.522       .  S
C1193      C1197   1.525       .  S
C1193      C1196   1.582       .  S
C1194      C1221   1.590       .  S
C1194      C1198   1.525       .  S
C1194      C1200   1.522       .  S
C1194      C1199   1.582       .  S
C1195      C1203   1.381       .  A
C1195      C1198   1.404       .  A
C1196      C1207   1.390       .  A
C1196      C1199   1.436       .  A
C1197      C1211   1.387       .  A
C1197      C1200   1.404       .  A
C1198      C1201   1.387       .  A
C1199      C1205   1.390       .  A
C1200      C1208   1.381       .  A
C1201      N1202   1.349       .  A
C1201      H1214   1.078       .  S
N1202      C1347   1.435       .  S
N1202      C1203   1.343       .  A
C1203      H1204   1.081       .  S
N1206      N1288   1.425       .  S
C1208      N1209   1.343       .  A
C1208      H1210   1.081       .  S
N1209      C1265   1.435       .  S
N1209      C1211   1.349       .  A
C1211      H1212   1.078       .  S
C1216      C1217   1.554       .  S
C1216      C1222   1.531       .  S
C1216      C1220   1.550       .  S
C1216      C1472   1.485       .  S
C1217      H1224   1.081       .  S
C1217      C1218   1.376       .  D
C1218      C1219   1.587       .  S
C1218      C1323   1.588       .  S
C1219      C1223   1.568       .  S
C1219      C1221   1.596       .  S
C1219      H1225   1.107       .  S
C1220      H1226   1.083       .  S
C1220      C1221   1.368       .  D
C1222      H1227   1.087       .  S
C1222      C1223   1.349       .  D
C1223      N1401   1.456       .  S
C1228      C1312   1.553       .  S
C1228      C1230   1.522       .  S
C1228      C1232   1.523       .  S
C1228      C1231   1.519       .  S
C1229      C1233   1.543       .  S
C1229      C1235   1.505       .  S
C1229      C1234   1.611       .  S
C1230      C1238   1.360       .  A
C1230      C1233   1.389       .  A
C1231      C1832   1.360   1_545  A
C1231      C1234   1.425       .  A
C1232      C1246   1.363       .  A
C1232      C1235   1.404       .  A
C1233      C1236   1.385       .  A
C1234      C1240   1.408       .  A
C1235      C1243   1.359       .  A
C1236      N1237   1.352       .  A
C1236      H1249   1.065       .  S
N1237      C1258   1.443       .  S
N1237      C1238   1.348       .  A
C1238      H1239   1.076       .  S
C1240      N1831   1.375   1_545  A
C1240      H1840   1.080   1_545  S
N1241      C1830   1.375       .  A
N1241      C1242   1.351       .  A
N1241      N1335   1.415       .  S
C1242      C1821   1.360       .  A
C1242      H1248   1.081       .  S
C1243      N1244   1.340       .  A
C1243      H1245   1.070       .  S
N1244      C1268   1.409       .  S
N1244      C1246   1.335       .  A
C1246      H1247   1.079       .  S
H1250      C1830   1.080       .  S
C1251      C1252   1.535       .  S
C1251      C1257   1.521       .  S
C1251      C1255   1.546       .  S
C1251      C1470   1.445       .  S
C1252      H1259   1.084       .  S
C1252      C1253   1.358       .  D
C1253      C1254   1.588       .  S
C1253      C1370   1.556       .  S
C1254      C1258   1.545       .  S
C1254      C1256   1.592       .  S
C1254      H1260   1.110       .  S
C1255      H1261   1.084       .  S
C1255      C1256   1.368       .  D
C1256      C1276   1.566       .  S
C1257      H1262   1.088       .  S
C1257      C1258   1.348       .  D
C1263      C1264   1.552       .  S
C1263      C1269   1.549       .  S
C1263      C1267   1.528       .  S
C1263      C1468   1.451       .  S
C1264      H1271   1.085       .  S
C1264      C1265   1.368       .  D
C1265      C1266   1.517       .  S
C1266      C1270   1.544       .  S
C1266      C1268   1.518       .  S
C1266      H1272   1.112       .  S
C1267      H1273   1.088       .  S
C1267      C1268   1.338       .  D
C1269      H1274   1.080       .  S
C1269      C1270   1.373       .  D
C1270      C1392   1.525       .  S
C1275      C1359   1.566       .  S
C1275      C1277   1.520       .  S
C1275      C1279   1.513       .  S
C1275      C1278   1.580       .  S
C1276      C1280   1.513       .  S
C1276      C1282   1.519       .  S
C1276      C1281   1.579       .  S
C1277      C1285   1.379       .  A
C1277      C1280   1.397       .  A
C1278      C1289   1.390       .  A
C1278      C1281   1.433       .  A
C1279      C1293   1.378       .  A
C1279      C1282   1.397       .  A
C1280      C1283   1.377       .  A
C1281      C1287   1.389       .  A
C1282      C1290   1.379       .  A
C1283      N1284   1.343       .  A
C1283      H1296   1.077       .  S
N1284      C1303   1.426       .  S
N1284      C1285   1.341       .  A
C1285      H1286   1.080       .  S
C1287      N1288   1.367       .  A
C1287      H1297   1.081       .  S
N1288      C1289   1.368       .  A
C1289      H1295   1.081       .  S
C1290      N1291   1.341       .  A
C1290      H1292   1.080       .  S
N1291      C1315   1.425       .  S
N1291      C1293   1.343       .  A
C1293      H1294   1.077       .  S
C1298      C1299   1.568       .  S
C1298      C1304   1.536       .  S
C1298      C1302   1.541       .  S
C1298      C1467   1.472       .  S
C1299      H1306   1.083       .  S
C1299      C1300   1.384       .  D
C1300      C1301   1.548       .  S
C1300      C1322   1.554       .  S
C1301      C1305   1.526       .  S
C1301      C1303   1.519       .  S
C1301      H1307   1.112       .  S
C1302      H1308   1.086       .  S
C1302      C1303   1.358       .  D
C1304      H1309   1.087       .  S
C1304      C1305   1.349       .  D
C1305      N1385   1.427       .  S
C1310      C1311   1.568       .  S
C1310      C1316   1.537       .  S
C1310      C1314   1.540       .  S
C1310      C1464   1.471       .  S
C1311      H1318   1.083       .  S
C1311      C1312   1.384       .  D
C1312      C1313   1.548       .  S
C1313      C1317   1.525       .  S
C1313      C1315   1.519       .  S
C1313      H1319   1.112       .  S
C1314      H1320   1.086       .  S
C1314      C1315   1.357       .  D
C1316      H1321   1.087       .  S
C1316      C1317   1.349       .  D
C1317      N1408   1.426       .  S
C1322      C1324   1.522       .  S
C1322      C1326   1.524       .  S
C1322      C1325   1.520       .  S
C1323      C1327   1.542       .  S
C1323      C1329   1.505       .  S
C1323      C1328   1.610       .  S
C1324      C1332   1.360       .  A
C1324      C1327   1.389       .  A
C1325      C1336   1.360       .  A
C1325      C1328   1.425       .  A
C1326      C1340   1.363       .  A
C1326      C1329   1.405       .  A
C1327      C1330   1.385       .  A
C1328      C1334   1.408       .  A
C1329      C1337   1.359       .  A
C1330      N1331   1.351       .  A
C1330      H1343   1.065       .  S
N1331      C1362   1.443       .  S
N1331      C1332   1.348       .  A
C1332      H1333   1.076       .  S
C1334      N1335   1.375       .  A
C1334      H1344   1.080       .  S
N1335      C1336   1.351       .  A
C1336      H1342   1.081       .  S
C1337      N1338   1.340       .  A
C1337      H1339   1.071       .  S
N1338      C1350   1.409       .  S
N1338      C1340   1.335       .  A
C1340      H1341   1.079       .  S
C1345      C1346   1.552       .  S
C1345      C1351   1.548       .  S
C1345      C1349   1.527       .  S
C1345      C1463   1.451       .  S
C1346      H1353   1.085       .  S
C1346      C1347   1.368       .  D
C1347      C1348   1.518       .  S
C1348      C1352   1.543       .  S
C1348      C1350   1.518       .  S
C1348      H1354   1.112       .  S
C1349      H1355   1.088       .  S
C1349      C1350   1.338       .  D
C1351      H1356   1.080   1_554  S
C1351      C1352   1.373       .  D
C1352      C1369   1.525       .  S
C1357      C1358   1.546       .  S
C1357      C1363   1.534       .  S
C1357      C1361   1.521       .  S
C1357      C1460   1.445       .  S
C1358      H1365   1.084       .  S
C1358      C1359   1.368       .  D
C1359      C1360   1.592       .  S
C1360      C1364   1.588       .  S
C1360      C1362   1.545       .  S
C1360      H1366   1.110       .  S
C1361      H1367   1.088       .  S
C1361      C1362   1.348       .  D
C1363      H1368   1.084       .  S
C1363      C1364   1.357       .  D
C1364      C1393   1.556       .  S
C1369      C1371   1.514       .  S
C1369      C1373   1.513       .  S
C1369      C1372   1.535       .  S
C1370      C1374   1.542       .  S
C1370      C1376   1.528       .  S
C1370      C1375   1.588       .  S
C1371      C1379   1.367       .  A
C1371      C1374   1.374       .  A
C1372      C1678   1.365   1_554  A
C1372      C1375   1.421       .  A
C1373      C1387   1.370       .  A
C1373      C1376   1.395       .  A
C1374      C1377   1.383       .  A
C1375      C1676   1.402   1_554  A
C1376      C1384   1.374       .  A
C1377      N1378   1.366       .  A
C1377      H1390   1.077       .  S
N1378      C1379   1.350       .  A
C1379      H1380   1.070       .  S
C1381      C1670   1.402       .  A
C1381      N1382   1.372       .  A
C1381      H1391   1.081       .  S
N1382      C1383   1.352       .  A
N1382      N1405   1.413       .  S
C1383      C1667   1.365       .  A
C1383      H1389   1.079       .  S
C1384      N1385   1.348       .  A
C1384      H1386   1.072       .  S
N1385      C1387   1.338       .  A
C1387      H1388   1.079       .  S
C1392      C1394   1.515       .  S
C1392      C1396   1.513       .  S
C1392      C1395   1.536       .  S
C1393      C1397   1.542       .  S
C1393      C1399   1.527       .  S
C1393      C1398   1.588       .  S
C1394      C1402   1.367       .  A
C1394      C1397   1.375       .  A
C1395      C1406   1.366       .  A
C1395      C1398   1.421       .  A
C1396      C1410   1.370       .  A
C1396      C1399   1.394       .  A
C1397      C1400   1.383       .  A
C1398      C1404   1.401       .  A
C1399      C1407   1.373       .  A
C1400      N1401   1.365       .  A
C1400      H1413   1.077       .  S
N1401      C1402   1.350       .  A
C1402      H1403   1.070       .  S
C1404      N1405   1.371       .  A
C1404      H1414   1.081       .  S
N1405      C1406   1.353       .  A
C1406      H1412   1.079       .  S
C1407      N1408   1.348       .  A
C1407      H1409   1.072       .  S
N1408      C1410   1.338       .  A
C1410      H1411   1.079       .  S
N1415     Mn1444   2.267       .  S
N1416      C1423   1.359       .  A
N1417     Mn1433   2.212       .  S
N1417      N2008   1.324       .  A
N1418      C1424   1.354       .  A
N1418      N2007   1.324       .  A
N1419     Mn1444   2.127       .  S
N1420      C1424   1.336       .  A
N1421     Mn1433   2.203       .  S
N1421      N2307   1.322       .  A
N1422      C1423   1.352       .  A
N1422      N2306   1.322   1_554  A
C1423      C1474   1.455       .  S
C1424      C1469   1.426       .  S
N1425     Mn1455   2.267       .  S
N1425      N1426   1.327       .  A
N1427     Mn1433   2.212       .  S
N1427      N1428   1.324       .  A
N1428      C1730   1.354       .  A
N1429     Mn1455   2.128       .  S
N1429      N1430   1.312   1_655  A
N1431     Mn1433   2.202       .  S
N1431      N1432   1.322       .  A
N1432      C1434   1.351       .  A
C1434      C1473   1.454       .  S
C1435      N1723   1.354       .  A
C1435      C1462   1.426       .  S
N1436     Mn1444   2.264       .  S
N1436      N1437   1.328       .  A
N1436      N1442   1.318   1_545  A
N1437      C1445   1.363       .  A
N1438     Mn2046   2.214   1_545  S
N1438      N1440   1.308       .  A
N1438      N1734   1.325       .  A
N1439      C1446   1.360   1_556  A
N1439      N1733   1.325       .  A
N1440     Mn1444   2.112       .  S
N1440      N1736   1.308       .  A
N1441      C1446   1.333   1_556  A
N1441      N1735   1.308       .  A
N1442     Mn2046   2.168       .  S
N1442      N1443   1.316       .  A
N1443      C1445   1.343   1_565  A
Mn1444    Cl2047   2.492   1_545  S
C1445      C1465   1.443       .  S
C1446      C1471   1.415       .  S
N1447     Mn1455   2.266       .  S
N1447      N1448   1.328       .  A
N1447      N1453   1.318       .  A
N1448      C1753   1.363       .  A
N1449     Mn1456   2.214       .  S
N1449      N1450   1.325       .  A
N1449      N1451   1.308       .  A
N1450      C1459   1.360       .  A
N1451     Mn1455   2.112       .  S
N1451      N1452   1.308       .  A
N1452      C1459   1.333       .  A
N1453     Mn1456   2.168       .  S
N1453      N1454   1.317       .  A
N1454      C1753   1.343       .  A
Mn1455    Cl1457   2.492       .  S
Mn1456     N2028   2.214       .  S
Mn1456     N2032   2.168       .  S
Mn1456    Cl1457   2.574       .  S
Cl1457    Mn2034   2.492       .  S
C1458      N1743   1.363       .  A
C1458      N1749   1.343       .  A
C1458      C1466   1.444       .  S
C1459      C1461   1.415       .  S
C1460      C1461   1.196       .  T
C1462      C1463   1.200   1_556  T
C1464      C1465   1.211       .  T
C1466      C1467   1.211       .  T
C1468      C1469   1.200       .  T
C1470      C1471   1.196       .  T
C1472      C1473   1.217       .  T
C1474      C1475   1.217       .  T
C1476      C1477   1.554       .  S
C1476      C1482   1.531       .  S
C1476      C1480   1.551       .  S
C1476      C1770   1.486       .  S
C1477      H1484   1.082       .  S
C1477      C1478   1.375       .  D
C1478      C1479   1.587       .  S
C1478      C1524   1.588       .  S
C1479      C1483   1.568       .  S
C1479      C1481   1.596       .  S
C1479      H1485   1.107       .  S
C1480      H1486   1.083       .  S
C1480      C1481   1.369       .  D
C1481      C1488   1.591       .  S
C1482      H1487   1.087       .  S
C1482      C1483   1.349       .  D
C1483      N1673   1.455       .  S
C1488      C1490   1.522       .  S
C1488      C1492   1.525       .  S
C1488      C1491   1.582       .  S
C1489      C1516   1.590       .  S
C1489      C1493   1.525       .  S
C1489      C1495   1.522       .  S
C1489      C1494   1.582       .  S
C1490      C1498   1.381       .  A
C1490      C1493   1.404       .  A
C1491      C1502   1.390       .  A
C1491      C1494   1.436       .  A
C1492      C1506   1.387       .  A
C1492      C1495   1.404       .  A
C1493      C1496   1.386       .  A
C1494      C1500   1.390       .  A
C1495      C1503   1.380       .  A
C1496      N1497   1.349       .  A
C1496      H1509   1.078       .  S
N1497      C1642   1.435       .  S
N1497      C1498   1.343       .  A
C1498      H1499   1.081       .  S
N1501      N1583   1.425       .  S
C1503      N1504   1.343       .  A
C1503      H1505   1.081       .  S
N1504      C1560   1.435       .  S
N1504      C1506   1.349       .  A
C1506      H1507   1.078       .  S
C1511      C1512   1.554       .  S
C1511      C1517   1.531       .  S
C1511      C1515   1.550       .  S
C1511      C1767   1.485       .  S
C1512      H1519   1.081       .  S
C1512      C1513   1.376       .  D
C1513      C1514   1.587       .  S
C1513      C1618   1.588       .  S
C1514      C1518   1.568       .  S
C1514      C1516   1.596       .  S
C1514      H1520   1.107       .  S
C1515      H1521   1.083       .  S
C1515      C1516   1.368       .  D
C1517      H1522   1.087       .  S
C1517      C1518   1.349       .  D
C1518      N1696   1.456       .  S
C1523      C1607   1.553       .  S
C1523      C1525   1.522       .  S
C1523      C1527   1.523       .  S
C1523      C1526   1.519       .  S
C1524      C1528   1.543       .  S
C1524      C1530   1.505       .  S
C1524      C1529   1.611       .  S
C1525      C1533   1.360       .  A
C1525      C1528   1.389       .  A
C1526      C2127   1.360   1_545  A
C1526      C1529   1.425       .  A
C1527      C1541   1.363       .  A
C1527      C1530   1.404       .  A
C1528      C1531   1.385       .  A
C1529      C1535   1.408       .  A
C1530      C1538   1.359       .  A
C1531      N1532   1.352       .  A
C1531      H1544   1.065       .  S
N1532      C1553   1.443       .  S
N1532      C1533   1.348       .  A
C1533      H1534   1.076       .  S
C1535      N2126   1.375   1_545  A
C1535      H2135   1.080   1_545  S
N1536      C2125   1.375       .  A
N1536      C1537   1.351       .  A
N1536      N1630   1.415       .  S
C1537      C2116   1.360       .  A
C1537      H1543   1.081       .  S
C1538      N1539   1.340       .  A
C1538      H1540   1.070       .  S
N1539      C1563   1.409       .  S
N1539      C1541   1.335       .  A
C1541      H1542   1.079       .  S
H1545      C2125   1.080       .  S
C1546      C1547   1.535       .  S
C1546      C1552   1.521       .  S
C1546      C1550   1.546       .  S
C1546      C1765   1.445       .  S
C1547      H1554   1.084       .  S
C1547      C1548   1.358       .  D
C1548      C1549   1.588       .  S
C1548      C1665   1.556       .  S
C1549      C1553   1.545       .  S
C1549      C1551   1.592       .  S
C1549      H1555   1.110       .  S
C1550      H1556   1.084       .  S
C1550      C1551   1.368       .  D
C1551      C1571   1.566       .  S
C1552      H1557   1.088       .  S
C1552      C1553   1.348       .  D
C1558      C1559   1.552       .  S
C1558      C1564   1.549       .  S
C1558      C1562   1.528       .  S
C1558      C1763   1.451       .  S
C1559      H1566   1.085       .  S
C1559      C1560   1.368       .  D
C1560      C1561   1.517       .  S
C1561      C1565   1.544       .  S
C1561      C1563   1.518       .  S
C1561      H1567   1.112       .  S
C1562      H1568   1.088       .  S
C1562      C1563   1.338       .  D
C1564      H1569   1.080       .  S
C1564      C1565   1.373       .  D
C1565      C1687   1.525       .  S
C1570      C1654   1.566       .  S
C1570      C1572   1.520       .  S
C1570      C1574   1.513       .  S
C1570      C1573   1.580       .  S
C1571      C1575   1.513       .  S
C1571      C1577   1.519       .  S
C1571      C1576   1.579       .  S
C1572      C1580   1.379       .  A
C1572      C1575   1.397       .  A
C1573      C1584   1.390       .  A
C1573      C1576   1.433       .  A
C1574      C1588   1.378       .  A
C1574      C1577   1.397       .  A
C1575      C1578   1.377       .  A
C1576      C1582   1.389       .  A
C1577      C1585   1.379       .  A
C1578      N1579   1.343       .  A
C1578      H1591   1.076       .  S
N1579      C1598   1.425       .  S
N1579      C1580   1.341       .  A
C1580      H1581   1.080       .  S
C1582      N1583   1.367       .  A
C1582      H1592   1.081       .  S
N1583      C1584   1.368       .  A
C1584      H1590   1.081       .  S
C1585      N1586   1.341       .  A
C1585      H1587   1.080       .  S
N1586      C1610   1.425       .  S
N1586      C1588   1.343       .  A
C1588      H1589   1.077       .  S
C1593      C1594   1.568       .  S
C1593      C1599   1.536       .  S
C1593      C1597   1.541       .  S
C1593      C1762   1.472       .  S
C1594      H1601   1.083       .  S
C1594      C1595   1.384       .  D
C1595      C1596   1.548       .  S
C1595      C1617   1.554       .  S
C1596      C1600   1.526       .  S
C1596      C1598   1.519       .  S
C1596      H1602   1.112       .  S
C1597      H1603   1.086       .  S
C1597      C1598   1.358       .  D
C1599      H1604   1.087       .  S
C1599      C1600   1.349       .  D
C1600      N1680   1.427       .  S
C1605      C1606   1.568       .  S
C1605      C1611   1.537       .  S
C1605      C1609   1.540       .  S
C1605      C1759   1.471       .  S
C1606      H1613   1.083       .  S
C1606      C1607   1.384       .  D
C1607      C1608   1.548       .  S
C1608      C1612   1.525       .  S
C1608      C1610   1.519       .  S
C1608      H1614   1.112       .  S
C1609      H1615   1.086       .  S
C1609      C1610   1.357       .  D
C1611      H1616   1.087       .  S
C1611      C1612   1.349       .  D
C1612      N1703   1.426       .  S
C1617      C1619   1.522       .  S
C1617      C1621   1.524       .  S
C1617      C1620   1.520       .  S
C1618      C1622   1.542       .  S
C1618      C1624   1.505       .  S
C1618      C1623   1.610       .  S
C1619      C1627   1.360       .  A
C1619      C1622   1.389       .  A
C1620      C1631   1.360       .  A
C1620      C1623   1.425       .  A
C1621      C1635   1.363       .  A
C1621      C1624   1.405       .  A
C1622      C1625   1.385       .  A
C1623      C1629   1.408       .  A
C1624      C1632   1.359       .  A
C1625      N1626   1.351       .  A
C1625      H1638   1.065       .  S
N1626      C1657   1.443       .  S
N1626      C1627   1.348       .  A
C1627      H1628   1.076       .  S
C1629      N1630   1.375       .  A
C1629      H1639   1.080       .  S
N1630      C1631   1.351       .  A
C1631      H1637   1.081       .  S
C1632      N1633   1.340       .  A
C1632      H1634   1.071       .  S
N1633      C1645   1.409       .  S
N1633      C1635   1.335       .  A
C1635      H1636   1.079       .  S
C1640      C1641   1.552       .  S
C1640      C1646   1.548       .  S
C1640      C1644   1.527       .  S
C1640      C1758   1.451       .  S
C1641      H1648   1.085       .  S
C1641      C1642   1.368       .  D
C1642      C1643   1.518       .  S
C1643      C1647   1.543       .  S
C1643      C1645   1.518       .  S
C1643      H1649   1.112       .  S
C1644      H1650   1.088       .  S
C1644      C1645   1.338       .  D
C1646      H1651   1.080       .  S
C1646      C1647   1.373       .  D
C1647      C1664   1.525       .  S
C1652      C1653   1.546       .  S
C1652      C1658   1.534       .  S
C1652      C1656   1.521       .  S
C1652      C1755   1.445       .  S
C1653      H1660   1.084       .  S
C1653      C1654   1.368       .  D
C1654      C1655   1.592       .  S
C1655      C1659   1.588       .  S
C1655      C1657   1.545       .  S
C1655      H1661   1.110       .  S
C1656      H1662   1.088       .  S
C1656      C1657   1.348       .  D
C1658      H1663   1.084       .  S
C1658      C1659   1.357       .  D
C1659      C1688   1.556       .  S
C1664      C1666   1.514       .  S
C1664      C1668   1.513       .  S
C1664      C1667   1.536       .  S
C1665      C1669   1.542       .  S
C1665      C1671   1.528       .  S
C1665      C1670   1.588       .  S
C1666      C1674   1.367       .  A
C1666      C1669   1.374       .  A
C1667      C1670   1.421       .  A
C1668      C1682   1.370       .  A
C1668      C1671   1.395       .  A
C1669      C1672   1.383       .  A
C1671      C1679   1.374       .  A
C1672      N1673   1.366       .  A
C1672      H1685   1.077       .  S
N1673      C1674   1.350       .  A
C1674      H1675   1.070       .  S
C1676      N1677   1.372       .  A
C1676      H1686   1.081       .  S
N1677      C1678   1.352       .  A
N1677      N1700   1.413       .  S
C1678      H1684   1.079       .  S
C1679      N1680   1.348       .  A
C1679      H1681   1.072       .  S
N1680      C1682   1.338       .  A
C1682      H1683   1.079       .  S
C1687      C1689   1.515       .  S
C1687      C1691   1.513       .  S
C1687      C1690   1.536       .  S
C1688      C1692   1.542       .  S
C1688      C1694   1.527       .  S
C1688      C1693   1.588       .  S
C1689      C1697   1.367       .  A
C1689      C1692   1.375       .  A
C1690      C1701   1.366       .  A
C1690      C1693   1.421       .  A
C1691      C1705   1.370       .  A
C1691      C1694   1.394       .  A
C1692      C1695   1.383       .  A
C1693      C1699   1.401       .  A
C1694      C1702   1.373       .  A
C1695      N1696   1.365       .  A
C1695      H1708   1.077       .  S
N1696      C1697   1.350       .  A
C1697      H1698   1.070       .  S
C1699      N1700   1.371       .  A
C1699      H1709   1.081       .  S
N1700      C1701   1.353       .  A
C1701      H1707   1.079       .  S
C1702      N1703   1.348       .  A
C1702      H1704   1.072       .  S
N1703      C1705   1.338       .  A
C1705      H1706   1.079       .  S
N1710     Mn1739   2.267       .  S
N1711      C1718   1.359       .  A
N1712     Mn1728   2.212       .  S
N1712      N2303   1.324       .  A
N1713      C1719   1.354       .  A
N1713      N2302   1.324       .  A
N1714     Mn1739   2.127       .  S
N1715      C1719   1.336       .  A
N1716     Mn1728   2.203       .  S
N1716      N2012   1.322   1_556  A
N1717      C1718   1.352       .  A
N1717      N2011   1.322       .  A
C1718      C1769   1.455       .  S
C1719      C1764   1.426       .  S
N1720     Mn1750   2.267       .  S
N1720      N1721   1.327       .  A
N1722     Mn1728   2.212       .  S
N1722      N1723   1.324       .  A
N1724     Mn1750   2.128       .  S
N1724      N1725   1.312   1_655  A
N1726     Mn1728   2.202       .  S
N1726      N1727   1.322       .  A
N1727      C1729   1.351       .  A
C1729      C1768   1.454       .  S
C1730      C1757   1.426       .  S
N1731     Mn1739   2.264       .  S
N1731      N1732   1.328       .  A
N1731      N1737   1.318   1_545  A
N1732      C1740   1.363       .  A
N1733     Mn2341   2.214   1_545  S
N1733      N1735   1.308       .  A
N1734      C1741   1.360       .  A
N1735     Mn1739   2.112       .  S
N1736      C1741   1.333       .  A
N1737     Mn2341   2.168       .  S
N1737      N1738   1.316       .  A
N1738      C1740   1.343   1_565  A
Mn1739    Cl2342   2.492   1_545  S
C1740      C1760   1.443       .  S
C1741      C1766   1.415       .  S
N1742     Mn1750   2.266       .  S
N1742      N1743   1.328   1_556  A
N1742      N1748   1.318       .  A
N1744     Mn1751   2.214       .  S
N1744      N1745   1.325       .  A
N1744      N1746   1.308       .  A
N1745      C1754   1.360       .  A
N1746     Mn1750   2.112       .  S
N1746      N1747   1.308       .  A
N1747      C1754   1.333       .  A
N1748     Mn1751   2.168       .  S
N1748      N1749   1.317   1_556  A
Mn1750    Cl1752   2.492       .  S
Mn1751     N2323   2.214       .  S
Mn1751     N2327   2.168       .  S
Mn1751    Cl1752   2.574       .  S
Cl1752    Mn2329   2.492       .  S
C1753      C1761   1.444       .  S
C1754      C1756   1.415       .  S
C1755      C1756   1.196       .  T
C1757      C1758   1.200       .  T
C1759      C1760   1.211       .  T
C1761      C1762   1.211       .  T
C1763      C1764   1.200       .  T
C1765      C1766   1.196       .  T
C1767      C1768   1.217       .  T
C1769      C1770   1.217       .  T
C1771      C1772   1.554       .  S
C1771      C1777   1.531       .  S
C1771      C1775   1.551       .  S
C1771      C2065   1.486       .  S
C1772      H1779   1.082       .  S
C1772      C1773   1.376       .  D
C1773      C1774   1.587       .  S
C1773      C1819   1.588       .  S
C1774      C1778   1.568       .  S
C1774      C1776   1.596       .  S
C1774      H1780   1.107       .  S
C1775      H1781   1.083       .  S
C1775      C1776   1.369       .  D
C1776      C1783   1.591       .  S
C1777      H1782   1.087       .  S
C1777      C1778   1.349       .  D
C1778      N1968   1.455       .  S
C1783      C1785   1.522       .  S
C1783      C1787   1.525       .  S
C1783      C1786   1.582       .  S
C1784      C1811   1.590       .  S
C1784      C1788   1.525       .  S
C1784      C1790   1.522       .  S
C1784      C1789   1.582       .  S
C1785      C1793   1.381       .  A
C1785      C1788   1.404       .  A
C1786      C1797   1.390       .  A
C1786      C1789   1.436       .  A
C1787      C1801   1.387       .  A
C1787      C1790   1.404       .  A
C1788      C1791   1.387       .  A
C1789      C1795   1.390       .  A
C1790      C1798   1.381       .  A
C1791      N1792   1.349       .  A
C1791      H1804   1.078       .  S
N1792      C1937   1.435       .  S
N1792      C1793   1.343       .  A
C1793      H1794   1.081       .  S
N1796      N1878   1.425       .  S
C1798      N1799   1.343       .  A
C1798      H1800   1.081       .  S
N1799      C1855   1.435       .  S
N1799      C1801   1.349       .  A
C1801      H1802   1.078       .  S
C1806      C1807   1.554       .  S
C1806      C1812   1.531       .  S
C1806      C1810   1.550       .  S
C1806      C2062   1.485       .  S
C1807      H1814   1.081       .  S
C1807      C1808   1.376       .  D
C1808      C1809   1.587       .  S
C1808      C1913   1.588       .  S
C1809      C1813   1.568       .  S
C1809      C1811   1.596       .  S
C1809      H1815   1.107       .  S
C1810      H1816   1.083       .  S
C1810      C1811   1.368       .  D
C1812      H1817   1.087       .  S
C1812      C1813   1.349       .  D
C1813      N1991   1.456       .  S
C1818      C1902   1.553       .  S
C1818      C1820   1.522       .  S
C1818      C1822   1.523       .  S
C1818      C1821   1.519       .  S
C1819      C1823   1.543       .  S
C1819      C1825   1.505       .  S
C1819      C1824   1.611       .  S
C1820      C1828   1.360       .  A
C1820      C1823   1.389       .  A
C1821      C1824   1.425       .  A
C1822      C1836   1.363       .  A
C1822      C1825   1.404       .  A
C1823      C1826   1.385       .  A
C1824      C1830   1.408       .  A
C1825      C1833   1.359       .  A
C1826      N1827   1.352       .  A
C1826      H1839   1.065       .  S
N1827      C1848   1.443       .  S
N1827      C1828   1.348       .  A
C1828      H1829   1.076       .  S
N1831      C1832   1.351       .  A
N1831      N1925   1.415       .  S
C1832      H1838   1.081       .  S
C1833      N1834   1.340       .  A
C1833      H1835   1.070       .  S
N1834      C1858   1.409       .  S
N1834      C1836   1.335       .  A
C1836      H1837   1.079       .  S
C1841      C1842   1.535       .  S
C1841      C1847   1.521       .  S
C1841      C1845   1.546       .  S
C1841      C2060   1.445       .  S
C1842      H1849   1.084       .  S
C1842      C1843   1.358       .  D
C1843      C1844   1.588       .  S
C1843      C1960   1.556       .  S
C1844      C1848   1.545       .  S
C1844      C1846   1.592       .  S
C1844      H1850   1.110       .  S
C1845      H1851   1.084       .  S
C1845      C1846   1.368       .  D
C1846      C1866   1.566       .  S
C1847      H1852   1.088       .  S
C1847      C1848   1.348       .  D
C1853      C1854   1.552       .  S
C1853      C1859   1.549       .  S
C1853      C1857   1.528       .  S
C1853      C2058   1.451       .  S
C1854      H1861   1.085       .  S
C1854      C1855   1.368       .  D
C1855      C1856   1.517       .  S
C1856      C1860   1.544       .  S
C1856      C1858   1.518       .  S
C1856      H1862   1.112       .  S
C1857      H1863   1.088       .  S
C1857      C1858   1.338       .  D
C1859      H1864   1.080       .  S
C1859      C1860   1.373       .  D
C1860      C1982   1.525       .  S
C1865      C1949   1.566       .  S
C1865      C1867   1.520       .  S
C1865      C1869   1.513       .  S
C1865      C1868   1.580       .  S
C1866      C1870   1.513       .  S
C1866      C1872   1.519       .  S
C1866      C1871   1.579       .  S
C1867      C1875   1.379       .  A
C1867      C1870   1.397       .  A
C1868      C1879   1.390       .  A
C1868      C1871   1.433       .  A
C1869      C1883   1.378       .  A
C1869      C1872   1.397       .  A
C1870      C1873   1.377       .  A
C1871      C1877   1.389       .  A
C1872      C1880   1.379       .  A
C1873      N1874   1.343       .  A
C1873      H1886   1.077       .  S
N1874      C1893   1.426       .  S
N1874      C1875   1.341       .  A
C1875      H1876   1.080       .  S
C1877      N1878   1.367       .  A
C1877      H1887   1.081       .  S
N1878      C1879   1.368       .  A
C1879      H1885   1.081       .  S
C1880      N1881   1.341       .  A
C1880      H1882   1.080       .  S
N1881      C1905   1.425       .  S
N1881      C1883   1.343       .  A
C1883      H1884   1.077       .  S
C1888      C1889   1.568       .  S
C1888      C1894   1.536       .  S
C1888      C1892   1.541       .  S
C1888      C2057   1.472       .  S
C1889      H1896   1.083       .  S
C1889      C1890   1.384       .  D
C1890      C1891   1.548       .  S
C1890      C1912   1.554       .  S
C1891      C1895   1.526       .  S
C1891      C1893   1.519       .  S
C1891      H1897   1.112       .  S
C1892      H1898   1.086       .  S
C1892      C1893   1.358       .  D
C1894      H1899   1.087       .  S
C1894      C1895   1.349       .  D
C1895      N1975   1.427       .  S
C1900      C1901   1.568       .  S
C1900      C1906   1.537       .  S
C1900      C1904   1.540       .  S
C1900      C2054   1.471       .  S
C1901      H1908   1.083       .  S
C1901      C1902   1.384       .  D
C1902      C1903   1.548       .  S
C1903      C1907   1.525       .  S
C1903      C1905   1.519       .  S
C1903      H1909   1.112       .  S
C1904      H1910   1.086       .  S
C1904      C1905   1.357       .  D
C1906      H1911   1.087       .  S
C1906      C1907   1.349       .  D
C1907      N1998   1.426       .  S
C1912      C1914   1.522       .  S
C1912      C1916   1.524       .  S
C1912      C1915   1.520       .  S
C1913      C1917   1.542       .  S
C1913      C1919   1.505       .  S
C1913      C1918   1.610       .  S
C1914      C1922   1.360       .  A
C1914      C1917   1.389       .  A
C1915      C1926   1.360       .  A
C1915      C1918   1.425       .  A
C1916      C1930   1.363       .  A
C1916      C1919   1.405       .  A
C1917      C1920   1.385       .  A
C1918      C1924   1.408       .  A
C1919      C1927   1.359       .  A
C1920      N1921   1.351       .  A
C1920      H1933   1.065       .  S
N1921      C1952   1.443       .  S
N1921      C1922   1.348       .  A
C1922      H1923   1.076       .  S
C1924      N1925   1.375       .  A
C1924      H1934   1.080       .  S
N1925      C1926   1.351       .  A
C1926      H1932   1.081       .  S
C1927      N1928   1.340       .  A
C1927      H1929   1.071       .  S
N1928      C1940   1.409       .  S
N1928      C1930   1.335       .  A
C1930      H1931   1.079       .  S
C1935      C1936   1.552       .  S
C1935      C1941   1.548       .  S
C1935      C1939   1.527       .  S
C1935      C2053   1.451       .  S
C1936      H1943   1.085       .  S
C1936      C1937   1.368       .  D
C1937      C1938   1.518       .  S
C1938      C1942   1.543       .  S
C1938      C1940   1.518       .  S
C1938      H1944   1.112       .  S
C1939      H1945   1.088       .  S
C1939      C1940   1.338       .  D
C1941      H1946   1.080   1_554  S
C1941      C1942   1.373       .  D
C1942      C1959   1.525       .  S
C1947      C1948   1.546       .  S
C1947      C1953   1.534       .  S
C1947      C1951   1.521       .  S
C1947      C2050   1.445       .  S
C1948      H1955   1.084       .  S
C1948      C1949   1.368       .  D
C1949      C1950   1.592       .  S
C1950      C1954   1.588       .  S
C1950      C1952   1.545       .  S
C1950      H1956   1.110       .  S
C1951      H1957   1.088       .  S
C1951      C1952   1.348       .  D
C1953      H1958   1.084       .  S
C1953      C1954   1.357       .  D
C1954      C1983   1.556       .  S
C1959      C1961   1.514       .  S
C1959      C1963   1.513       .  S
C1959      C1962   1.535       .  S
C1960      C1964   1.542       .  S
C1960      C1966   1.528       .  S
C1960      C1965   1.588       .  S
C1961      C1969   1.367       .  A
C1961      C1964   1.374       .  A
C1962      C2268   1.365   1_554  A
C1962      C1965   1.421       .  A
C1963      C1977   1.370       .  A
C1963      C1966   1.395       .  A
C1964      C1967   1.383       .  A
C1965      C2266   1.402   1_554  A
C1966      C1974   1.374       .  A
C1967      N1968   1.366       .  A
C1967      H1980   1.077       .  S
N1968      C1969   1.350       .  A
C1969      H1970   1.070       .  S
C1971      C2260   1.402       .  A
C1971      N1972   1.372       .  A
C1971      H1981   1.081       .  S
N1972      C1973   1.352       .  A
N1972      N1995   1.413       .  S
C1973      C2257   1.365       .  A
C1973      H1979   1.079       .  S
C1974      N1975   1.348       .  A
C1974      H1976   1.072       .  S
N1975      C1977   1.338       .  A
C1977      H1978   1.079       .  S
C1982      C1984   1.515       .  S
C1982      C1986   1.513       .  S
C1982      C1985   1.536       .  S
C1983      C1987   1.542       .  S
C1983      C1989   1.527       .  S
C1983      C1988   1.588       .  S
C1984      C1992   1.367       .  A
C1984      C1987   1.375       .  A
C1985      C1996   1.366       .  A
C1985      C1988   1.421       .  A
C1986      C2000   1.370       .  A
C1986      C1989   1.394       .  A
C1987      C1990   1.383       .  A
C1988      C1994   1.401       .  A
C1989      C1997   1.373       .  A
C1990      N1991   1.365       .  A
C1990      H2003   1.077       .  S
N1991      C1992   1.350       .  A
C1992      H1993   1.070       .  S
C1994      N1995   1.371       .  A
C1994      H2004   1.081       .  S
N1995      C1996   1.353       .  A
C1996      H2002   1.079       .  S
C1997      N1998   1.348       .  A
C1997      H1999   1.072       .  S
N1998      C2000   1.338       .  A
C2000      H2001   1.079       .  S
N2005     Mn2034   2.267       .  S
N2006      C2013   1.359       .  A
N2007     Mn2023   2.212   1_545  S
N2008      C2014   1.354       .  A
N2009     Mn2034   2.127       .  S
N2010      C2014   1.336       .  A
N2011     Mn2023   2.203   1_545  S
N2012      C2013   1.352       .  A
C2013      C2064   1.455       .  S
C2014      C2059   1.426       .  S
N2015     Mn2045   2.267       .  S
N2015      N2016   1.327       .  A
N2017     Mn2023   2.212       .  S
N2017      N2018   1.324       .  A
N2018      C2320   1.354       .  A
N2019     Mn2045   2.128       .  S
N2019      N2020   1.312   1_655  A
N2021     Mn2023   2.202       .  S
N2021      N2022   1.322       .  A
N2022      C2024   1.351       .  A
C2024      C2063   1.454       .  S
C2025      N2313   1.354       .  A
C2025      C2052   1.426       .  S
N2026     Mn2034   2.264       .  S
N2026      N2027   1.328       .  A
N2026      N2032   1.318       .  A
N2027      C2035   1.363       .  A
N2028      N2030   1.308       .  A
N2028      N2324   1.325       .  A
N2029      C2036   1.360   1_556  A
N2029      N2323   1.325       .  A
N2030     Mn2034   2.112       .  S
N2030      N2326   1.308       .  A
N2031      C2036   1.333   1_556  A
N2031      N2325   1.308       .  A
N2032      N2033   1.316       .  A
N2033      C2035   1.343       .  A
C2035      C2055   1.443       .  S
C2036      C2061   1.415       .  S
N2037     Mn2045   2.266       .  S
N2037      N2038   1.328       .  A
N2037      N2043   1.318       .  A
N2038      C2343   1.363       .  A
N2039     Mn2046   2.214       .  S
N2039      N2040   1.325       .  A
N2039      N2041   1.308       .  A
N2040      C2049   1.360       .  A
N2041     Mn2045   2.112       .  S
N2041      N2042   1.308       .  A
N2042      C2049   1.333       .  A
N2043     Mn2046   2.168       .  S
N2043      N2044   1.317       .  A
N2044      C2343   1.343       .  A
Mn2045    Cl2047   2.492       .  S
Mn2046    Cl2047   2.574       .  S
C2048      N2333   1.363       .  A
C2048      N2339   1.343       .  A
C2048      C2056   1.444       .  S
C2049      C2051   1.415       .  S
C2050      C2051   1.196       .  T
C2052      C2053   1.200   1_556  T
C2054      C2055   1.211       .  T
C2056      C2057   1.211       .  T
C2058      C2059   1.200       .  T
C2060      C2061   1.196       .  T
C2062      C2063   1.217       .  T
C2064      C2065   1.217       .  T
C2066      C2067   1.554       .  S
C2066      C2072   1.531       .  S
C2066      C2070   1.551       .  S
C2066      C2360   1.486       .  S
C2067      H2074   1.082       .  S
C2067      C2068   1.375       .  D
C2068      C2069   1.587       .  S
C2068      C2114   1.588       .  S
C2069      C2073   1.568       .  S
C2069      C2071   1.596       .  S
C2069      H2075   1.107       .  S
C2070      H2076   1.083       .  S
C2070      C2071   1.369       .  D
C2071      C2078   1.591       .  S
C2072      H2077   1.087       .  S
C2072      C2073   1.349       .  D
C2073      N2263   1.455       .  S
C2078      C2080   1.522       .  S
C2078      C2082   1.525       .  S
C2078      C2081   1.582       .  S
C2079      C2106   1.590       .  S
C2079      C2083   1.525       .  S
C2079      C2085   1.522       .  S
C2079      C2084   1.582       .  S
C2080      C2088   1.381       .  A
C2080      C2083   1.404       .  A
C2081      C2092   1.390       .  A
C2081      C2084   1.436       .  A
C2082      C2096   1.387       .  A
C2082      C2085   1.404       .  A
C2083      C2086   1.386       .  A
C2084      C2090   1.390       .  A
C2085      C2093   1.380       .  A
C2086      N2087   1.349       .  A
C2086      H2099   1.078       .  S
N2087      C2232   1.435       .  S
N2087      C2088   1.343       .  A
C2088      H2089   1.081       .  S
N2091      N2173   1.425       .  S
C2093      N2094   1.343       .  A
C2093      H2095   1.080       .  S
N2094      C2150   1.435       .  S
N2094      C2096   1.349       .  A
C2096      H2097   1.078       .  S
C2101      C2102   1.554       .  S
C2101      C2107   1.531       .  S
C2101      C2105   1.550       .  S
C2101      C2357   1.485       .  S
C2102      H2109   1.081       .  S
C2102      C2103   1.376       .  D
C2103      C2104   1.587       .  S
C2103      C2208   1.588       .  S
C2104      C2108   1.568       .  S
C2104      C2106   1.596       .  S
C2104      H2110   1.107       .  S
C2105      H2111   1.083       .  S
C2105      C2106   1.368       .  D
C2107      H2112   1.087       .  S
C2107      C2108   1.349       .  D
C2108      N2286   1.456       .  S
C2113      C2197   1.553       .  S
C2113      C2115   1.521       .  S
C2113      C2117   1.523       .  S
C2113      C2116   1.519       .  S
C2114      C2118   1.543       .  S
C2114      C2120   1.505       .  S
C2114      C2119   1.611       .  S
C2115      C2123   1.360       .  A
C2115      C2118   1.389       .  A
C2116      C2119   1.425       .  A
C2117      C2131   1.363       .  A
C2117      C2120   1.404       .  A
C2118      C2121   1.385       .  A
C2119      C2125   1.408       .  A
C2120      C2128   1.359       .  A
C2121      N2122   1.352       .  A
C2121      H2134   1.065       .  S
N2122      C2143   1.443       .  S
N2122      C2123   1.348       .  A
C2123      H2124   1.076       .  S
N2126      C2127   1.351       .  A
N2126      N2220   1.415       .  S
C2127      H2133   1.081       .  S
C2128      N2129   1.340       .  A
C2128      H2130   1.070       .  S
N2129      C2153   1.409       .  S
N2129      C2131   1.335       .  A
C2131      H2132   1.079       .  S
C2136      C2137   1.535       .  S
C2136      C2142   1.521       .  S
C2136      C2140   1.546       .  S
C2136      C2355   1.445       .  S
C2137      H2144   1.084       .  S
C2137      C2138   1.358       .  D
C2138      C2139   1.588       .  S
C2138      C2255   1.556       .  S
C2139      C2143   1.545       .  S
C2139      C2141   1.592       .  S
C2139      H2145   1.110       .  S
C2140      H2146   1.084       .  S
C2140      C2141   1.368       .  D
C2141      C2161   1.566       .  S
C2142      H2147   1.088       .  S
C2142      C2143   1.348       .  D
C2148      C2149   1.552       .  S
C2148      C2154   1.549       .  S
C2148      C2152   1.528       .  S
C2148      C2353   1.451       .  S
C2149      H2156   1.085       .  S
C2149      C2150   1.368       .  D
C2150      C2151   1.517       .  S
C2151      C2155   1.544       .  S
C2151      C2153   1.518       .  S
C2151      H2157   1.112       .  S
C2152      H2158   1.088       .  S
C2152      C2153   1.338       .  D
C2154      H2159   1.080       .  S
C2154      C2155   1.373       .  D
C2155      C2277   1.525       .  S
C2160      C2244   1.566       .  S
C2160      C2162   1.520       .  S
C2160      C2164   1.513       .  S
C2160      C2163   1.580       .  S
C2161      C2165   1.513       .  S
C2161      C2167   1.519       .  S
C2161      C2166   1.579       .  S
C2162      C2170   1.379       .  A
C2162      C2165   1.397       .  A
C2163      C2174   1.390       .  A
C2163      C2166   1.433       .  A
C2164      C2178   1.378       .  A
C2164      C2167   1.397       .  A
C2165      C2168   1.377       .  A
C2166      C2172   1.389       .  A
C2167      C2175   1.379       .  A
C2168      N2169   1.343       .  A
C2168      H2181   1.076       .  S
N2169      C2188   1.425       .  S
N2169      C2170   1.341       .  A
C2170      H2171   1.080       .  S
C2172      N2173   1.367       .  A
C2172      H2182   1.081       .  S
N2173      C2174   1.368       .  A
C2174      H2180   1.081       .  S
C2175      N2176   1.341       .  A
C2175      H2177   1.080       .  S
N2176      C2200   1.425       .  S
N2176      C2178   1.343       .  A
C2178      H2179   1.077       .  S
C2183      C2184   1.568       .  S
C2183      C2189   1.536       .  S
C2183      C2187   1.541       .  S
C2183      C2352   1.472       .  S
C2184      H2191   1.083       .  S
C2184      C2185   1.384       .  D
C2185      C2186   1.548       .  S
C2185      C2207   1.554       .  S
C2186      C2190   1.526       .  S
C2186      C2188   1.519       .  S
C2186      H2192   1.112       .  S
C2187      H2193   1.086       .  S
C2187      C2188   1.358       .  D
C2189      H2194   1.087       .  S
C2189      C2190   1.349       .  D
C2190      N2270   1.427       .  S
C2195      C2196   1.568       .  S
C2195      C2201   1.537       .  S
C2195      C2199   1.540       .  S
C2195      C2349   1.471       .  S
C2196      H2203   1.083       .  S
C2196      C2197   1.383       .  D
C2197      C2198   1.548       .  S
C2198      C2202   1.525       .  S
C2198      C2200   1.519       .  S
C2198      H2204   1.112       .  S
C2199      H2205   1.086       .  S
C2199      C2200   1.357       .  D
C2201      H2206   1.087       .  S
C2201      C2202   1.349       .  D
C2202      N2293   1.426       .  S
C2207      C2209   1.522       .  S
C2207      C2211   1.524       .  S
C2207      C2210   1.520       .  S
C2208      C2212   1.542       .  S
C2208      C2214   1.505       .  S
C2208      C2213   1.610       .  S
C2209      C2217   1.360       .  A
C2209      C2212   1.389       .  A
C2210      C2221   1.360       .  A
C2210      C2213   1.425       .  A
C2211      C2225   1.363       .  A
C2211      C2214   1.405       .  A
C2212      C2215   1.385       .  A
C2213      C2219   1.408       .  A
C2214      C2222   1.359       .  A
C2215      N2216   1.351       .  A
C2215      H2228   1.065       .  S
N2216      C2247   1.443       .  S
N2216      C2217   1.348       .  A
C2217      H2218   1.076       .  S
C2219      N2220   1.375       .  A
C2219      H2229   1.080       .  S
N2220      C2221   1.351       .  A
C2221      H2227   1.081       .  S
C2222      N2223   1.340       .  A
C2222      H2224   1.071       .  S
N2223      C2235   1.409       .  S
N2223      C2225   1.335       .  A
C2225      H2226   1.079       .  S
C2230      C2231   1.552       .  S
C2230      C2236   1.548       .  S
C2230      C2234   1.527       .  S
C2230      C2348   1.451       .  S
C2231      H2238   1.085       .  S
C2231      C2232   1.368       .  D
C2232      C2233   1.518       .  S
C2233      C2237   1.543       .  S
C2233      C2235   1.518       .  S
C2233      H2239   1.112       .  S
C2234      H2240   1.088       .  S
C2234      C2235   1.338       .  D
C2236      H2241   1.080       .  S
C2236      C2237   1.373       .  D
C2237      C2254   1.525       .  S
C2242      C2243   1.546       .  S
C2242      C2248   1.534       .  S
C2242      C2246   1.521       .  S
C2242      C2345   1.445       .  S
C2243      H2250   1.084       .  S
C2243      C2244   1.368       .  D
C2244      C2245   1.592       .  S
C2245      C2249   1.588       .  S
C2245      C2247   1.545       .  S
C2245      H2251   1.110       .  S
C2246      H2252   1.088       .  S
C2246      C2247   1.348       .  D
C2248      H2253   1.084       .  S
C2248      C2249   1.357       .  D
C2249      C2278   1.556       .  S
C2254      C2256   1.514       .  S
C2254      C2258   1.513       .  S
C2254      C2257   1.536       .  S
C2255      C2259   1.542       .  S
C2255      C2261   1.528       .  S
C2255      C2260   1.588       .  S
C2256      C2264   1.367       .  A
C2256      C2259   1.374       .  A
C2257      C2260   1.421       .  A
C2258      C2272   1.370       .  A
C2258      C2261   1.395       .  A
C2259      C2262   1.383       .  A
C2261      C2269   1.374       .  A
C2262      N2263   1.366       .  A
C2262      H2275   1.077       .  S
N2263      C2264   1.350       .  A
C2264      H2265   1.070       .  S
C2266      N2267   1.372       .  A
C2266      H2276   1.081       .  S
N2267      C2268   1.352       .  A
N2267      N2290   1.413       .  S
C2268      H2274   1.079       .  S
C2269      N2270   1.348       .  A
C2269      H2271   1.072       .  S
N2270      C2272   1.338       .  A
C2272      H2273   1.079       .  S
C2277      C2279   1.515       .  S
C2277      C2281   1.513       .  S
C2277      C2280   1.536       .  S
C2278      C2282   1.542       .  S
C2278      C2284   1.527       .  S
C2278      C2283   1.588       .  S
C2279      C2287   1.367       .  A
C2279      C2282   1.375       .  A
C2280      C2291   1.366       .  A
C2280      C2283   1.421       .  A
C2281      C2295   1.370       .  A
C2281      C2284   1.394       .  A
C2282      C2285   1.383       .  A
C2283      C2289   1.401       .  A
C2284      C2292   1.373       .  A
C2285      N2286   1.365       .  A
C2285      H2298   1.077       .  S
N2286      C2287   1.350       .  A
C2287      H2288   1.070       .  S
C2289      N2290   1.371       .  A
C2289      H2299   1.081       .  S
N2290      C2291   1.353       .  A
C2291      H2297   1.079       .  S
C2292      N2293   1.348       .  A
C2292      H2294   1.072       .  S
N2293      C2295   1.338       .  A
C2295      H2296   1.079       .  S
N2300     Mn2329   2.267       .  S
N2301      C2308   1.359       .  A
N2302     Mn2318   2.212   1_545  S
N2303      C2309   1.354       .  A
N2304     Mn2329   2.127       .  S
N2305      C2309   1.336       .  A
N2306     Mn2318   2.203   1_545  S
N2307      C2308   1.352       .  A
C2308      C2359   1.455       .  S
C2309      C2354   1.426       .  S
N2310     Mn2340   2.267       .  S
N2310      N2311   1.327       .  A
N2312     Mn2318   2.212       .  S
N2312      N2313   1.324       .  A
N2314     Mn2340   2.128       .  S
N2314      N2315   1.312   1_655  A
N2316     Mn2318   2.202       .  S
N2316      N2317   1.322       .  A
N2317      C2319   1.351       .  A
C2319      C2358   1.454       .  S
C2320      C2347   1.426       .  S
N2321     Mn2329   2.264       .  S
N2321      N2322   1.328       .  A
N2321      N2327   1.318       .  A
N2322      C2330   1.363       .  A
N2323      N2325   1.308       .  A
N2324      C2331   1.360       .  A
N2325     Mn2329   2.112       .  S
N2326      C2331   1.333       .  A
N2327      N2328   1.316       .  A
N2328      C2330   1.343       .  A
C2330      C2350   1.443       .  S
C2331      C2356   1.415       .  S
N2332     Mn2340   2.266       .  S
N2332      N2333   1.328   1_556  A
N2332      N2338   1.318       .  A
N2334     Mn2341   2.214       .  S
N2334      N2335   1.325       .  A
N2334      N2336   1.308       .  A
N2335      C2344   1.360       .  A
N2336     Mn2340   2.112       .  S
N2336      N2337   1.308       .  A
N2337      C2344   1.333       .  A
N2338     Mn2341   2.168       .  S
N2338      N2339   1.317   1_556  A
Mn2340    Cl2342   2.492       .  S
Mn2341    Cl2342   2.574       .  S
C2343      C2351   1.444       .  S
C2344      C2346   1.415       .  S
C2345      C2346   1.196       .  T
C2347      C2348   1.200       .  T
C2349      C2350   1.211       .  T
C2351      C2352   1.211       .  T
C2353      C2354   1.200       .  T
C2355      C2356   1.196       .  T
C2357      C2358   1.217       .  T
C2359      C2360   1.217       .  T
