geometry optimzed in LAMMPS
_audit_creation_date              2020-11-30 
_audit_creation_method            'lammps2cif' 
_symmetry_space_group_name_H-M    'P1' 
_symmetry_Int_Tables_number       1 
_symmetry_cell_setting            triclinic 
loop_ 
_symmetry_equiv_pos_as_xyz 
  x,y,z 
_cell_length_a                    25.397169731820743 
_cell_length_b                    25.366370289103934 
_cell_length_c                    25.355064861839427 
_cell_angle_alpha                 90.02308339791169 
_cell_angle_beta                  90.06923212377396 
_cell_angle_gamma                 90.01323773741868 
loop_ 
_atom_site_label 
_atom_site_type_symbol 
_atom_site_fract_x 
_atom_site_fract_y 
_atom_site_fract_z 
_atom_site_charge 
C1          C  0.72895298  0.72900565  0.99759690     0.03390
C2          C  0.74339203  0.67538521  0.00060739    -0.12760
C3          C  0.70478736  0.63614759  0.00333001     0.00890
C4          C  0.65167660  0.65021621  0.00449764    -0.11290
C5          C  0.63641587  0.70316760  0.00269079     0.03380
C6          C  0.67497837  0.74248075  0.99811247    -0.10710
H7          H  0.78441615  0.66397170  0.00227430     0.08980
H8          H  0.62193976  0.61961327  0.00695008     0.06510
H9          H  0.66292752  0.78338893  0.99599347     0.06350
C10         C  0.72680962  0.31956515  0.00074317     0.03390
C11         C  0.74185525  0.37312808  0.00430014    -0.12760
C12         C  0.70387941  0.41298848  0.00473662     0.00890
C13         C  0.65060776  0.39977958  0.00375700    -0.11290
C14         C  0.63457999  0.34711564  0.00085503     0.03380
C15         C  0.67261851  0.30719037  0.99744538    -0.10710
H16         H  0.78289144  0.38417864  0.00772074     0.08980
H17         H  0.62130103  0.43084972  0.00542979     0.06510
H18         H  0.65965486  0.26683984  0.99301570     0.06350
C19         C  0.31780761  0.32280371  0.99751414     0.03390
C20         C  0.37177426  0.30928740  0.99800415    -0.12980
C21         C  0.41037440  0.34874989  0.99923769     0.00890
C22         C  0.39524483  0.40166684  0.99707192    -0.11290
C23         C  0.34214920  0.41578877  0.99631277     0.03380
C24         C  0.30346193  0.37656879  0.99809099    -0.10710
H25         H  0.38385441  0.26833824  0.99810730     0.08980
H26         H  0.42511346  0.43224878  0.99657424     0.06510
H27         H  0.26249677  0.38815861  0.99977361     0.06350
C28         C  0.32008378  0.73184553  0.99869740     0.03390
C29         C  0.37382281  0.74552732  0.99950796    -0.12760
C30         C  0.41231172  0.70592461  0.00096406     0.00890
C31         C  0.39690239  0.65295863  0.99969384    -0.11290
C32         C  0.34366001  0.63905209  0.99805400     0.03380
C33         C  0.30516866  0.67847385  0.99846417    -0.10710
H34         H  0.38548622  0.78661334  0.00050627     0.08980
H35         H  0.42662704  0.62224777  0.00005418     0.06510
H36         H  0.26386807  0.66773709  0.99740035     0.06350
C37         C  0.73058859  0.02324826  0.70311094     0.03390
C38         C  0.67685471  0.02304612  0.71736520    -0.12760
C39         C  0.63769505  0.02336088  0.67843733     0.00890
C40         C  0.65206235  0.02101573  0.62527822    -0.11290
C41         C  0.70502485  0.02079506  0.61042978     0.03380
C42         C  0.74417464  0.02359241  0.64918149    -0.10710
H43         H  0.66535745  0.02312254  0.75849100     0.08980
H44         H  0.62172325  0.01985009  0.59514353     0.06510
H45         H  0.78496606  0.02565246  0.63708588     0.06350
C46         C  0.32137545  0.01489676  0.70539351     0.03390
C47         C  0.37516797  0.01553507  0.71961864    -0.12760
C48         C  0.41412082  0.01964643  0.68072518     0.00890
C49         C  0.39938586  0.02156799  0.62765178    -0.11290
C50         C  0.34640360  0.02107455  0.61282632     0.03380
C51         C  0.30740110  0.01772489  0.65160693    -0.10710
H52         H  0.38668316  0.01413675  0.76074983     0.08980
H53         H  0.42954963  0.02433046  0.59751309     0.06510
H54         H  0.26643937  0.01963184  0.63989337     0.06350
C55         C  0.32026162  0.02405072  0.29612697     0.03390
C56         C  0.30701060  0.01975522  0.35001199    -0.12760
C57         C  0.34592405  0.02439374  0.38884908     0.00890
C58         C  0.39854594  0.02994941  0.37388976    -0.11290
C59         C  0.41295374  0.03250451  0.32074270     0.03380
C60         C  0.37373312  0.02985268  0.28186122    -0.10710
H61         H  0.26654708  0.01401613  0.36200285     0.08980
H62         H  0.42867460  0.03255163  0.40415269     0.06510
H63         H  0.38476801  0.03399920  0.24082612     0.06350
C64         C  0.72905940  0.02541460  0.29388138     0.03390
C65         C  0.74385825  0.02164762  0.34741624    -0.12760
C66         C  0.70546769  0.02050164  0.38691574     0.00890
C67         C  0.65240120  0.02522520  0.37332076    -0.11290
C68         C  0.63687394  0.03070699  0.32068225     0.03380
C69         C  0.67508146  0.02902370  0.28084214    -0.10710
H70         H  0.78502427  0.01936348  0.35843474     0.08980
H71         H  0.62286611  0.02490603  0.40418441     0.06510
H72         H  0.66265803  0.03089044  0.24004159     0.06350
C73         C  0.02814957  0.31906744  0.70295783     0.03390
C74         C  0.03094534  0.37200166  0.71949127    -0.12760
C75         C  0.03250055  0.41257143  0.68210638     0.00890
C76         C  0.02961336  0.40025794  0.62845843    -0.11290
C77         C  0.02437385  0.34798632  0.61140247     0.03380
C78         C  0.02510102  0.30717505  0.64876861    -0.10710
H79         H  0.03277152  0.38146302  0.76114224     0.08980
H80         H  0.03067625  0.43188174  0.59970484     0.06510
H81         H  0.02148583  0.26657435  0.63595275     0.06350
C82         C  0.02587389  0.72850487  0.70528931     0.03390
C83         C  0.02731926  0.67513817  0.72036487    -0.12760
C84         C  0.03063299  0.63560269  0.68190171     0.00890
C85         C  0.03063008  0.64943852  0.62843507    -0.11290
C86         C  0.02784813  0.70227651  0.61298737     0.03380
C87         C  0.02595238  0.74191168  0.65142149    -0.10710
H88         H  0.02764944  0.66456183  0.76177469     0.08980
H89         H  0.03280243  0.61883892  0.59861624     0.06510
H90         H  0.02447502  0.78291827  0.63952704     0.06350
C91         C  0.02572856  0.32027807  0.29383160     0.03390
C92         C  0.02298049  0.30740822  0.34785067    -0.12760
C93         C  0.02225243  0.34751516  0.38602815     0.00890
C94         C  0.02604502  0.40017378  0.36984520    -0.11290
C95         C  0.02908862  0.41338130  0.31644929     0.03380
C96         C  0.02810796  0.37350364  0.27831948    -0.10710
H97         H  0.01988692  0.26655278  0.35990012     0.08980
H98         H  0.02644045  0.43136737  0.39913250     0.06510
H99         H  0.03030268  0.38374095  0.23688488     0.06350
C100        C  0.02372230  0.72965387  0.29613042     0.03390
C101        C  0.02267053  0.74246730  0.35027203    -0.12760
C102        C  0.02589449  0.70266620  0.38844533     0.00890
C103        C  0.02944303  0.64998815  0.37269830    -0.11290
C104        C  0.02924169  0.63648975  0.31920153     0.03380
C105        C  0.02625005  0.67622708  0.28096083    -0.10710
H106        H  0.01931023  0.78316097  0.36278860     0.08980
H107        H  0.03189709  0.61923047  0.40231396     0.06510
H108        H  0.02721816  0.66555435  0.23958909     0.06350
O109        O  0.93821734  0.87527544  0.99904134    -0.86230
O110        O  0.93889618  0.17440426  0.99925571    -0.86390
O111        O  0.87583631  0.02570762  0.08546937    -0.88060
O112        O  0.87550392  0.02713695  0.91419781    -0.86820
O113        O  0.93922806  0.02394671  0.85007388    -0.86410
O114        O  0.93994127  0.02294777  0.14940334    -0.87780
O115        O  0.87501237  0.11058718  0.00123486    -0.86260
O116        O  0.87487220  0.93979228  0.00135255    -0.85840
Zr117      Zr  0.91887646  0.02516129  0.99978376     2.84310
O118        O  0.97156194  0.07778540  0.94546137    -1.07820
O119        O  0.97161127  0.97162189  0.05315771    -1.08550
C120        C  0.88987320  0.89114298  0.00032221     1.06880
C121        C  0.89038092  0.15914083  0.00053721     1.06820
C122        C  0.89145249  0.02404455  0.13391913     1.09810
C123        C  0.89084320  0.02585971  0.86567752     1.07580
H124        H  0.95022794  0.10035912  0.07505711     0.33140
O125        O  0.97204782  0.07843093  0.05291625    -1.28770
H126        H  0.94906564  0.94943218  0.92426536     0.32820
O127        O  0.97124933  0.97129231  0.94617820    -1.30450
O128        O  0.11024069  0.17455418  0.99796788    -0.86220
O129        O  0.11023256  0.87504226  0.00086896    -0.87720
O130        O  0.02740736  0.11060301  0.14905662    -0.86300
O131        O  0.02643010  0.10904745  0.84825119    -0.86350
O132        O  0.02666913  0.93827161  0.84960300    -0.86060
O133        O  0.02549873  0.93928709  0.14955879    -0.85870
O134        O  0.17497356  0.02367844  0.08443602    -0.86240
O135        O  0.17455958  0.02450399  0.91413627    -0.85700
O136        O  0.11149816  0.02563039  0.14868176    -0.86760
O137        O  0.11098734  0.02072600  0.84983506    -0.85920
O138        O  0.02385745  0.17448659  0.08478680    -0.86320
O139        O  0.02104444  0.87512351  0.08576839    -0.86040
O140        O  0.02314032  0.87443955  0.91385453    -0.85690
O141        O  0.02138766  0.17360591  0.91172759    -0.86100
O142        O  0.17404614  0.11048044  0.00107227    -0.86400
O143        O  0.17404205  0.93926526  0.99661623    -0.87730
Zr144      Zr  0.02458140  0.13126849  0.99857017     2.83100
Zr145      Zr  0.02423219  0.91807477  0.99973964     2.83500
Zr146      Zr  0.02551127  0.02486848  0.10579600     2.84090
Zr147      Zr  0.02513441  0.02397699  0.89290983     2.83360
Zr148      Zr  0.13073474  0.02473511  0.99928600     2.84220
O149        O  0.07791124  0.97072505  0.94636580    -1.08310
O150        O  0.07806480  0.07848642  0.05230689    -1.07810
C151        C  0.15867374  0.15900961  0.99969705     1.06850
C152        C  0.15857401  0.89084809  0.99865265     1.09470
C153        C  0.02560936  0.15899993  0.13336020     1.07030
C154        C  0.02365454  0.15761792  0.86329231     1.07390
C155        C  0.02485957  0.88990287  0.86531709     1.06970
C156        C  0.02266962  0.89076068  0.13426871     1.06520
C157        C  0.15990281  0.02447585  0.13303662     1.06950
C158        C  0.15938423  0.02208203  0.86560367     1.06460
H159        H  0.10022102  0.94903294  0.07482226     0.33140
O160        O  0.07824802  0.97102846  0.05285816    -1.29400
H161        H  0.10022488  0.09991379  0.92336194     0.33160
O162        O  0.07822001  0.07812147  0.94545470    -1.30790
C163        C  0.02282312  0.77176505  0.25532676    -0.05200
C164        C  0.99017255  0.76640078  0.21081822    -0.32630
C165        C  0.98960195  0.80486637  0.17122256     0.36620
C166        C  0.02183569  0.84986780  0.17574448    -0.05560
C167        C  0.05401994  0.85561571  0.22039623    -0.32530
C168        C  0.05529502  0.81676581  0.25955254     0.36520
H169        H  0.96465256  0.73239155  0.20687659     0.16890
O170        O  0.95690441  0.79835719  0.12859946    -0.60030
H171        H  0.07947376  0.88970691  0.22422926     0.16910
O172        O  0.08959591  0.82255436  0.30097999    -0.60130
H173        H  0.12176579  0.80310307  0.29039326     0.43900
H174        H  0.92421423  0.81768751  0.13772699     0.43860
C175        C  0.03326503  0.46955995  0.30232353    -0.05200
C176        C  0.98796411  0.49732104  0.28711041    -0.32630
C177        C  0.98746349  0.55258871  0.28802822     0.36620
C178        C  0.03254758  0.58031672  0.30463694    -0.05560
C179        C  0.07889180  0.55253820  0.31601453    -0.32530
C180        C  0.07953148  0.49748205  0.31464496     0.36520
H181        H  0.95192655  0.47615119  0.27838537     0.16890
O182        O  0.94135982  0.57885381  0.27793988    -0.60030
H183        H  0.11371122  0.57354902  0.32906862     0.16910
O184        O  0.12422374  0.47116980  0.32979396    -0.60130
H185        H  0.14215981  0.46163084  0.29640988     0.43900
H186        H  0.94295003  0.58809254  0.23998211     0.43860
C187        C  0.02516984  0.19996577  0.17449262    -0.05200
C188        C  0.06400959  0.19981445  0.21389614    -0.32630
C189        C  0.06471162  0.23895674  0.25286095     0.36620
C190        C  0.02557544  0.27829491  0.25334811    -0.05560
C191        C  0.98643861  0.27806952  0.21419825    -0.32530
C192        C  0.98590755  0.23911335  0.17508259     0.36520
H193        H  0.09447991  0.16990168  0.21377015     0.16890
O194        O  0.10436198  0.23908647  0.28964117    -0.60030
H195        H  0.95593616  0.30793432  0.21431754     0.16910
O196        O  0.94639974  0.23908996  0.13812330    -0.60130
H197        H  0.91923589  0.21477324  0.15219031     0.43900
H198        H  0.13175610  0.26280199  0.27502347     0.43860
C199        C  0.02601350  0.71479591  0.44529914    -0.05200
C200        C  0.07406377  0.71601929  0.47257650    -0.32630
C201        C  0.07502069  0.71614970  0.52778167     0.36620
C202        C  0.02753069  0.71469792  0.55621573    -0.05560
C203        C  0.97946154  0.71626471  0.52896800    -0.32530
C204        C  0.97850541  0.71645372  0.47371727     0.36520
H205        H  0.11081864  0.71398588  0.45100824     0.16890
O206        O  0.12243883  0.71363791  0.55358252    -0.60030
H207        H  0.94271138  0.71429230  0.55054684     0.16910
O208        O  0.93109907  0.71391743  0.44789758    -0.60130
H209        H  0.92250992  0.75092948  0.43873148     0.43900
H210        H  0.13057223  0.75054054  0.56362510     0.43860
C211        C  0.02555903  0.77026306  0.74590745    -0.05200
C212        C  0.98403657  0.77292215  0.78225371    -0.32630
C213        C  0.98321972  0.81216698  0.82108050     0.36620
C214        C  0.02460025  0.84892565  0.82428953    -0.05560
C215        C  0.06592968  0.84655313  0.78775774    -0.32530
C216        C  0.06685119  0.80723206  0.74901497     0.36520
H217        H  0.95192417  0.74486625  0.78006929     0.16890
O218        O  0.94142033  0.81487653  0.85514027    -0.60030
H219        H  0.09802920  0.87463381  0.78995624     0.16910
O220        O  0.10867290  0.80465091  0.71493171    -0.60130
H221        H  0.13362689  0.77940950  0.73131328     0.43900
H222        H  0.91675540  0.84059279  0.83905127     0.43860
C223        C  0.01633318  0.33648663  0.44311699    -0.05200
C224        C  0.97736713  0.36383431  0.47116523    -0.32630
C225        C  0.97767516  0.36485642  0.52620881     0.36620
C226        C  0.01712110  0.33774343  0.55432881    -0.05560
C227        C  0.05326647  0.30636465  0.52654281    -0.32530
C228        C  0.05299663  0.30552620  0.47109564     0.36520
H229        H  0.94817623  0.38691995  0.45018337     0.16890
O230        O  0.93996205  0.39346402  0.55239856    -0.60030
H231        H  0.08378843  0.28527718  0.54768471     0.16910
O232        O  0.09156635  0.27837001  0.44482187    -0.60130
H233        H  0.07831682  0.24167946  0.44226882     0.43900
H234        H  0.94863628  0.43101220  0.54573245     0.43860
C235        C  0.03621086  0.46859610  0.69722865    -0.05200
C236        C  0.08176469  0.49666472  0.68364036    -0.32630
C237        C  0.08165899  0.55172603  0.68324290     0.36620
C238        C  0.03542129  0.57941364  0.69608461    -0.05560
C239        C  0.99115017  0.55153535  0.71386853    -0.32530
C240        C  0.99137424  0.49623042  0.71456175     0.36520
H241        H  0.11633630  0.47576660  0.66987244     0.16890
O242        O  0.12555882  0.57812891  0.66611744    -0.60030
H243        H  0.95522776  0.57249235  0.72340506     0.16910
O244        O  0.94597836  0.46967758  0.72680870    -0.60130
H245        H  0.94927734  0.46089465  0.76477077     0.43900
H246        H  0.14406104  0.58935892  0.69870233     0.43860
C247        C  0.02662122  0.27647189  0.74265661    -0.05200
C248        C  0.98518981  0.27491451  0.77902706    -0.32630
C249        C  0.98358548  0.23613242  0.81843967     0.36620
C250        C  0.02380766  0.19814641  0.82155635    -0.05560
C251        C  0.06464745  0.19889840  0.78427942    -0.32530
C252        C  0.06644668  0.23797693  0.74523543     0.36520
H253        H  0.95384098  0.30381416  0.77670279     0.16890
O254        O  0.94137323  0.23377474  0.85208389    -0.60030
H255        H  0.09579614  0.16976173  0.78617646     0.16910
O256        O  0.10767166  0.23877794  0.71036225    -0.60130
H257        H  0.13410563  0.26271912  0.72639435     0.43900
H258        H  0.93673305  0.27005977  0.86582857     0.43860
C259        C  0.85028346  0.02399133  0.17481143    -0.05200
C260        C  0.80753904  0.05867269  0.17024500    -0.32630
C261        C  0.76793528  0.05985692  0.20863201     0.36620
C262        C  0.77015292  0.02507946  0.25206640    -0.05560
C263        C  0.81290424  0.99000707  0.25611588    -0.32530
C264        C  0.85303625  0.98976245  0.21834217     0.36520
H265        H  0.80546626  0.08590152  0.13736508     0.16890
O266        O  0.72901305  0.09720564  0.20493685    -0.60030
H267        H  0.81513476  0.96234969  0.28858432     0.16910
O268        O  0.89359420  0.95435248  0.22310300    -0.60130
H269        H  0.91909148  0.97118086  0.24752300     0.43900
H270        H  0.70728068  0.08668280  0.17414259     0.43860
C271        C  0.46941233  0.03929091  0.30787220    -0.05200
C272        C  0.49750044  0.07953485  0.33339003    -0.32630
C273        C  0.55243913  0.07913719  0.33443743     0.36620
C274        C  0.58030396  0.03844710  0.30901960    -0.05560
C275        C  0.55248853  0.00118066  0.27892603    -0.32530
C276        C  0.49716523  0.00146870  0.27815273     0.36520
H277        H  0.47665762  0.10950125  0.35557904     0.16890
O278        O  0.57876407  0.11762460  0.36198460    -0.60030
H279        H  0.57348044  0.96967309  0.25919498     0.16910
O280        O  0.47080863  0.96168906  0.25274302    -0.60130
H281        H  0.46695078  0.97395599  0.21581010     0.43900
H282        H  0.57245460  0.10977231  0.39978388     0.43860
C283        C  0.27850947  0.02391226  0.25477882    -0.05200
C284        C  0.28716605  0.99712846  0.20699329    -0.32630
C285        C  0.24943459  0.99767959  0.16671096     0.36620
C286        C  0.20120530  0.02412510  0.17420851    -0.05560
C287        C  0.19234150  0.05073283  0.22187696    -0.32530
C288        C  0.23054320  0.05130365  0.26172261     0.36520
H289        H  0.32329607  0.97530818  0.20081394     0.16890
O290        O  0.25934547  0.97050391  0.12099454    -0.60030
H291        H  0.15602462  0.07233671  0.22790245     0.16910
O292        O  0.22184011  0.08141123  0.30585482    -0.60130
H293        H  0.19280578  0.06367736  0.32507813     0.43900
H294        H  0.28101458  0.99466339  0.09922182     0.43860
C295        C  0.33304060  0.02728340  0.44555341    -0.05200
C296        C  0.34984818  0.07174968  0.47381657    -0.32630
C297        C  0.35043730  0.07152304  0.52880195     0.36620
C298        C  0.33337635  0.02660596  0.55640540    -0.05560
C299        C  0.31205261  0.98385453  0.52838524    -0.32530
C300        C  0.31171938  0.98403011  0.47299215     0.36520
H301        H  0.36566609  0.10558119  0.45307357     0.16890
O302        O  0.36981715  0.11449961  0.55542911    -0.60030
H303        H  0.29915241  0.94894643  0.54932564     0.16910
O304        O  0.29529064  0.93998239  0.44628798    -0.60130
H305        H  0.25676384  0.94454807  0.44185492     0.43900
H306        H  0.40864102  0.11247639  0.55167172     0.43860
C307        C  0.27992603  0.01533554  0.74674610    -0.05200
C308        C  0.28551065  0.04885871  0.79056325    -0.32630
C309        C  0.24676186  0.05115400  0.82964662     0.36620
C310        C  0.20083279  0.02039921  0.82490818    -0.05560
C311        C  0.19500808  0.98695105  0.78121554    -0.32530
C312        C  0.23422281  0.98392521  0.74248939     0.36520
H313        H  0.31972752  0.07411748  0.79419272     0.16890
O314        O  0.25304308  0.08541707  0.87107472    -0.60030
H315        H  0.16038417  0.96222138  0.77760413     0.16910
O316        O  0.22874225  0.94831651  0.70207459    -0.60130
H317        H  0.19937642  0.96179757  0.68005509     0.43900
H318        H  0.27617214  0.06675939  0.89648869     0.43860
C319        C  0.71804381  0.01660208  0.55394407    -0.05200
C320        C  0.70188880  0.97148024  0.52640183    -0.32630
C321        C  0.70218516  0.97066624  0.47134347     0.36620
C322        C  0.71909779  0.01528798  0.44316574    -0.05560
C323        C  0.73931421  0.05886313  0.47065666    -0.32530
C324        C  0.73898790  0.05966398  0.52596938     0.36520
H325        H  0.68603879  0.93798793  0.54765079     0.16890
O326        O  0.68346795  0.92713196  0.44519639    -0.60030
H327        H  0.75169309  0.09369476  0.44927434     0.16910
O328        O  0.75424797  0.10450775  0.55204251    -0.60130
H329        H  0.79250795  0.10003857  0.55844867     0.43900
H330        H  0.64455725  0.93023008  0.44641055     0.43860
C331        C  0.47058266  0.02505609  0.69369440    -0.05200
C332        C  0.49730354  0.06990498  0.67554428    -0.32630
C333        C  0.55221715  0.07112932  0.67418820     0.36620
C334        C  0.58128328  0.02731989  0.69171546    -0.05560
C335        C  0.55481810  0.98424708  0.71419748    -0.32530
C336        C  0.49954068  0.98295892  0.71533410     0.36520
H337        H  0.47540663  0.10272881  0.65915162     0.16890
O338        O  0.57731215  0.11438496  0.65357601    -0.60030
H339        H  0.57687106  0.95016852  0.72744886     0.16910
O340        O  0.47438241  0.93844594  0.73276271    -0.60130
H341        H  0.46881567  0.94426738  0.77102444     0.43900
H342        H  0.57420680  0.11068125  0.61474820     0.43860
C343        C  0.77218925  0.02380262  0.74451023    -0.05200
C344        C  0.76543561  0.05499229  0.78989825    -0.32630
C345        C  0.80332185  0.05552021  0.82999418     0.36620
C346        C  0.84977406  0.02574981  0.82452293    -0.05560
C347        C  0.85686087  0.99485501  0.77923692    -0.32530
C348        C  0.81842359  0.99320353  0.73968696     0.36520
H349        H  0.73079068  0.07949283  0.79426584     0.16890
O350        O  0.79551895  0.08692820  0.87335707    -0.60030
H351        H  0.89184401  0.97074981  0.77503616     0.16910
O352        O  0.82506347  0.95919812  0.69809685    -0.60130
H353        H  0.85502497  0.97352686  0.67751114     0.43900
H354        H  0.77245285  0.06612792  0.89706640     0.43860
C355        C  0.27923082  0.77313565  0.99860883    -0.05200
C356        C  0.24358964  0.77623170  0.04074072    -0.32630
C357        C  0.20415728  0.81472205  0.04120217     0.36620
C358        C  0.19976175  0.85029004  0.99889285    -0.05560
C359        C  0.23557052  0.84749362  0.95692901    -0.32530
C360        C  0.27487688  0.80883786  0.95634873     0.36520
H361        H  0.24673897  0.74902557  0.07353570     0.16890
O362        O  0.17063346  0.81785487  0.08348069    -0.60030
H363        H  0.23241554  0.87475349  0.92416929     0.16910
O364        O  0.30827194  0.80564054  0.91399365    -0.60130
H365        H  0.29183355  0.77958470  0.88987750     0.43900
H366        H  0.18653678  0.84451456  0.10730388     0.43860
C367        C  0.32873566  0.47216801  0.99309614    -0.05200
C368        C  0.31299123  0.49942558  0.03858033    -0.32630
C369        C  0.31333650  0.55470231  0.03946898     0.36620
C370        C  0.32978392  0.58282585  0.99458555    -0.05560
C371        C  0.34179612  0.55550843  0.94810447    -0.32530
C372        C  0.34110981  0.50051066  0.94708421     0.36520
H373        H  0.30409024  0.47790247  0.07438185     0.16890
O374        O  0.30255810  0.58064235  0.08566368    -0.60030
H375        H  0.35478143  0.57688363  0.91347335     0.16910
O376        O  0.35673322  0.47468577  0.90221911    -0.60130
H377        H  0.32359876  0.46472523  0.88404055     0.43900
H378        H  0.26470791  0.58996223  0.08343900     0.43860
C379        C  0.19970598  0.20025726  0.99930526    -0.05200
C380        C  0.19254407  0.24528875  0.96805112    -0.32630
C381        C  0.23071409  0.28509743  0.96649734     0.36620
C382        C  0.27675154  0.28083652  0.99755043    -0.05560
C383        C  0.28369445  0.23560638  0.02891907    -0.32530
C384        C  0.24608034  0.19525918  0.02937448     0.36520
H385        H  0.15764960  0.24914550  0.94370072     0.16890
O386        O  0.22398833  0.32646623  0.93226027    -0.60030
H387        H  0.31820706  0.23162431  0.05373321     0.16910
O388        O  0.25398919  0.15218942  0.06112534    -0.60130
H389        H  0.27704153  0.12832095  0.04048514     0.43900
H390        H  0.19376137  0.34689683  0.94625178     0.43860
C391        C  0.57769618  0.33542447  0.00452657    -0.05200
C392        C  0.54995042  0.35524142  0.04800099    -0.32630
C393        C  0.49505737  0.35613880  0.04810005     0.36620
C394        C  0.46693385  0.33643632  0.00452439    -0.05560
C395        C  0.49440797  0.31244855  0.96289966    -0.32530
C396        C  0.54973745  0.31174490  0.96276317     0.36520
H397        H  0.57104749  0.37287782  0.08074972     0.16890
O398        O  0.46901413  0.37811906  0.09011870    -0.60030
H399        H  0.47310702  0.29746872  0.92901264     0.16910
O400        O  0.57590745  0.29236163  0.91965906    -0.60130
H401        H  0.57940975  0.25399614  0.92627433     0.43900
H402        H  0.47293355  0.41678719  0.08578931     0.43860
C403        C  0.84903252  0.20039130  0.00127292    -0.05200
C404        C  0.80026064  0.19001922  0.02511406    -0.32630
C405        C  0.76034711  0.22823502  0.02604406     0.36620
C406        C  0.76793441  0.27737041  0.00071063    -0.05560
C407        C  0.81681201  0.28722027  0.97658851    -0.32530
C408        C  0.85751832  0.25027302  0.97851105     0.36520
H409        H  0.79347258  0.15261294  0.04459573     0.16890
O410        O  0.71565985  0.21830124  0.05474586    -0.60030
H411        H  0.82405065  0.32402950  0.95626001     0.16910
O412        O  0.90528238  0.26325432  0.95717805    -0.60130
H413        H  0.92383256  0.28352001  0.98503296     0.43900
H414        H  0.69716703  0.18951204  0.03576619     0.43860
C415        C  0.46898395  0.71802616  0.00561646    -0.05200
C416        C  0.49608869  0.69988826  0.05023033    -0.32630
C417        C  0.55105105  0.69862015  0.05104970     0.36620
C418        C  0.57978002  0.71590635  0.00687518    -0.05560
C419        C  0.55284142  0.73808358  0.96386290    -0.32530
C420        C  0.49755045  0.73925739  0.96307003     0.36520
H421        H  0.47445787  0.68379482  0.08335038     0.16890
O422        O  0.57655664  0.67877161  0.09448150    -0.60030
H423        H  0.57452926  0.75117979  0.92950699     0.16910
O424        O  0.47193889  0.75654372  0.91870190    -0.60130
H425        H  0.46531280  0.79455259  0.92497018     0.43900
H426        H  0.57203952  0.63998110  0.09241549     0.43860
C427        C  0.71839012  0.46912964  0.00702371    -0.05200
C428        C  0.72885738  0.49630411  0.96001967    -0.32630
C429        C  0.72911351  0.55152143  0.95919583     0.36620
C430        C  0.71854708  0.57982373  0.00572373    -0.05560
C431        C  0.71163597  0.55258638  0.05331079    -0.32530
C432        C  0.71177664  0.49749029  0.05419779     0.36520
H433        H  0.73313306  0.47474957  0.92336533     0.16890
O434        O  0.73449516  0.57732276  0.91198776    -0.60030
H435        H  0.70291928  0.57409727  0.08918956     0.16910
O436        O  0.70105142  0.47168931  0.10047053    -0.60130
H437        H  0.73591752  0.46131935  0.11472658     0.43900
H438        H  0.77220943  0.58724875  0.91009303     0.43860
C439        C  0.77005270  0.77092056  0.99690094    -0.05200
C440        C  0.76346572  0.81634593  0.02806900    -0.32630
C441        C  0.80176228  0.85604157  0.02909023     0.36620
C442        C  0.84841928  0.85024667  0.99971515    -0.05560
C443        C  0.85524348  0.80494755  0.96873666    -0.32530
C444        C  0.81637662  0.76580592  0.96656023     0.36520
H445        H  0.72879770  0.82086214  0.05249504     0.16890
O446        O  0.79429594  0.89915618  0.06090084    -0.60030
H447        H  0.89049538  0.80027371  0.94525176     0.16910
O448        O  0.82283227  0.72413400  0.93261068    -0.60130
H449        H  0.85275307  0.70344846  0.94693448     0.43900
H450        H  0.77150628  0.92329140  0.04024770     0.43860
loop_ 
_geom_bond_atom_site_label_1 
_geom_bond_atom_site_label_2 
_geom_bond_distance 
_geom_bond_site_symmetry_2 
_ccdc_geom_bond_type 
C1            C2   1.411   1_556  A
C1            C6   1.413       .  A
C1          C439   1.490       .  S
C2            C3   1.399       .  A
C2            H7   1.082       .  S
C3            C4   1.396       .  A
C3          C430   1.472       .  S
C4            C5   1.399       .  A
C4            H8   1.085       .  S
C5            C6   1.403   1_554  A
C5          C418   1.478       .  S
C6            H9   1.083       .  S
C10          C11   1.414       .  A
C10          C15   1.414   1_554  A
C10         C406   1.496       .  S
C11          C12   1.398       .  A
C11          H16   1.083       .  S
C12          C13   1.394       .  A
C12         C427   1.472       .  S
C13          C14   1.398       .  A
C13          H17   1.085       .  S
C14          C15   1.403   1_554  A
C14         C391   1.478       .  S
C15          H18   1.081       .  S
C19          C20   1.413       .  A
C19          C24   1.412       .  A
C19         C382   1.490       .  S
C20          C21   1.401       .  A
C20          H25   1.083       .  S
C21          C22   1.397       .  A
C21         C394   1.476   1_556  S
C22          C23   1.395       .  A
C22          H26   1.085       .  S
C23          C24   1.399       .  A
C23         C367   1.472       .  S
C24          H27   1.082       .  S
C28          C29   1.408       .  A
C28          C33   1.406       .  A
C28         C355   1.474       .  S
C29          C30   1.402   1_556  A
C29          H34   1.084   1_556  S
C30          C31   1.400   1_554  A
C30         C415   1.476       .  S
C31          C32   1.398       .  A
C31          H35   1.085   1_556  S
C32          C33   1.399       .  A
C32         C370   1.472       .  S
C33          H36   1.084       .  S
C37          C38   1.412       .  A
C37          C42   1.411       .  A
C37         C343   1.488       .  S
C38          C39   1.400       .  A
C38          H43   1.083       .  S
C39          C40   1.398       .  A
C39         C334   1.476       .  S
C40          C41   1.397       .  A
C40          H44   1.085       .  S
C41          C42   1.399       .  A
C41         C319   1.474       .  S
C42          H45   1.082       .  S
C46          C47   1.413       .  A
C46          C51   1.411       .  A
C46         C307   1.487       .  S
C47          C48   1.402       .  A
C47          H52   1.083       .  S
C48          C49   1.397       .  A
C48         C331   1.477       .  S
C49          C50   1.397       .  A
C49          H53   1.085       .  S
C50          C51   1.399       .  A
C50         C298   1.475       .  S
C51          H54   1.083       .  S
C55          C56   1.412       .  A
C55          C60   1.413       .  A
C55         C283   1.490       .  S
C56          C57   1.399       .  A
C56          H61   1.082       .  S
C57          C58   1.397       .  A
C57         C295   1.477       .  S
C58          C59   1.398       .  A
C58          H62   1.085       .  S
C59          C60   1.402       .  A
C59         C271   1.481       .  S
C60          H63   1.083       .  S
C64          C65   1.411       .  A
C64          C69   1.413       .  A
C64         C262   1.489       .  S
C65          C66   1.399       .  A
C65          H70   1.083       .  S
C66          C67   1.396       .  A
C66         C322   1.473       .  S
C67          C68   1.398       .  A
C67          H71   1.085       .  S
C68          C69   1.402       .  A
C68         C274   1.480       .  S
C69          H72   1.082       .  S
C73          C74   1.408       .  A
C73          C78   1.409       .  A
C73         C247   1.478       .  S
C74          C75   1.400       .  A
C74          H79   1.084       .  S
C75          C76   1.397       .  A
C75         C235   1.475       .  S
C76          C77   1.401       .  A
C76          H80   1.085       .  S
C77          C78   1.404       .  A
C77         C226   1.481       .  S
C78          H81   1.084       .  S
C82          C83   1.407       .  A
C82          C87   1.408       .  A
C82         C211   1.477       .  S
C83          C84   1.401       .  A
C83          H88   1.084       .  S
C84          C85   1.400       .  A
C84         C238   1.475       .  S
C85          C86   1.398       .  A
C85          H89   1.085       .  S
C86          C87   1.401       .  A
C86         C202   1.474       .  S
C87          H90   1.084       .  S
C91          C92   1.410       .  A
C91          C96   1.408       .  A
C91         C190   1.479       .  S
C92          C93   1.404       .  A
C92          H97   1.083       .  S
C93          C94   1.401       .  A
C93         C223   1.482       .  S
C94          C95   1.397       .  A
C94          H98   1.085       .  S
C95          C96   1.399       .  A
C95         C175   1.473       .  S
C96          H99   1.084       .  S
C100        C101   1.411       .  A
C100        C105   1.410       .  A
C100        C163   1.488       .  S
C101        C102   1.401       .  A
C101        H106   1.083       .  S
C102        C103   1.397       .  A
C102        C199   1.474       .  S
C103        C104   1.399       .  A
C103        H107   1.085       .  S
C104        C105   1.401       .  A
C104        C178   1.474       .  S
C105        H108   1.084       .  S
O109       Zr145   2.439   1_655  S
O109        C120   1.293   1_556  A
O110       Zr144   2.436   1_655  S
O110        C121   1.292   1_556  A
O111       Zr117   2.433   1_554  S
O111        C122   1.291       .  A
O112       Zr117   2.433       .  S
O112        C123   1.291       .  A
O113       Zr147   2.436   1_655  S
O113        C123   1.292       .  A
O114       Zr146   2.440   1_655  S
O114        C122   1.292       .  A
O115       Zr117   2.437   1_554  S
O115        C121   1.292       .  A
O116       Zr117   2.437   1_564  S
O116        C120   1.292       .  A
Zr117       O118   2.340       .  S
Zr117       O119   2.338   1_546  S
Zr117       O127   2.343   1_545  S
Zr117       O125   2.336   1_556  S
O118       Zr144   2.337   1_655  S
O118       Zr147   2.344   1_655  S
O119       Zr145   2.339   1_654  S
O119       Zr146   2.339   1_665  S
C120        C442   1.478   1_554  S
C121        C403   1.483       .  S
C122        C259   1.473       .  S
C123        C346   1.475       .  S
H124        O125   0.966       .  S
O125       Zr144   2.341   1_654  S
O125       Zr146   2.342   1_655  S
H126        O127   0.966       .  S
O127       Zr145   2.340   1_655  S
O127       Zr147   2.343   1_665  S
O128       Zr144   2.437       .  S
O128        C151   1.293       .  A
O129       Zr145   2.442   1_554  S
O129        C152   1.293   1_554  A
O130       Zr146   2.436       .  S
O130        C153   1.292       .  A
O131       Zr147   2.438       .  S
O131        C154   1.292       .  A
O132       Zr147   2.436   1_565  S
O132        C155   1.291       .  A
O133       Zr146   2.438   1_565  S
O133        C156   1.292       .  A
O134       Zr148   2.433   1_554  S
O134        C157   1.291       .  A
O135       Zr148   2.430       .  S
O135        C158   1.290       .  A
O136       Zr146   2.438       .  S
O136        C157   1.293       .  A
O137       Zr147   2.441       .  S
O137        C158   1.293       .  A
O138       Zr144   2.445   1_554  S
O138        C153   1.294       .  A
O139       Zr145   2.440   1_554  S
O139        C156   1.293       .  A
O140       Zr145   2.443       .  S
O140        C155   1.293       .  A
O141       Zr144   2.451       .  S
O141        C154   1.295       .  A
O142       Zr148   2.438   1_554  S
O142        C151   1.292   1_554  A
O143       Zr148   2.432   1_565  S
O143        C152   1.290       .  A
Zr144       O150   2.343   1_556  S
Zr144       O162   2.343       .  S
Zr145       O149   2.341       .  S
Zr145       O160   2.344   1_556  S
Zr146       O150   2.340       .  S
Zr146       O160   2.338   1_545  S
Zr147       O149   2.336   1_545  S
Zr147       O162   2.339       .  S
Zr148       O149   2.339   1_545  S
Zr148       O150   2.337   1_556  S
Zr148       O162   2.340       .  S
Zr148       O160   2.342   1_546  S
C151        C379   1.477       .  S
C152        C358   1.467       .  S
C153        C187   1.472       .  S
C154        C250   1.476       .  S
C155        C214   1.470       .  S
C156        C166   1.478       .  S
C157        C286   1.479       .  S
C158        C310   1.476       .  S
H159        O160   0.966       .  S
H161        O162   0.966       .  S
C163        C164   1.406   1_455  A
C163        C168   1.412       .  A
C164        C165   1.400       .  A
C164        H169   1.083       .  S
C165        C166   1.409   1_655  A
C165        O170   1.372       .  S
C166        C167   1.403       .  A
C167        C168   1.400       .  A
C167        H171   1.084       .  S
C168        O172   1.372       .  S
O170        H174   0.992       .  S
O172        H173   0.992       .  S
C175        C176   1.403   1_455  A
C175        C180   1.407       .  A
C176        C177   1.402       .  A
C176        H181   1.084       .  S
C177        C178   1.408   1_655  A
C177        O182   1.371       .  S
C178        C179   1.402       .  A
C179        C180   1.397       .  A
C179        H183   1.084       .  S
C180        O184   1.371       .  S
O182        H186   0.992       .  S
O184        H185   0.992       .  S
C187        C188   1.403       .  A
C187        C192   1.408   1_455  A
C188        C189   1.400       .  A
C188        H193   1.084       .  S
C189        C190   1.409       .  A
C189        O194   1.372       .  S
C190        C191   1.404   1_455  A
C191        C192   1.400       .  A
C191        H195   1.084       .  S
C192        O196   1.372       .  S
O194        H198   0.992       .  S
O196        H197   0.992       .  S
C199        C200   1.402       .  A
C199        C204   1.407   1_455  A
C200        C201   1.400       .  A
C200        H205   1.084       .  S
C201        C202   1.406       .  A
C201        O206   1.371       .  S
C202        C203   1.403   1_455  A
C203        C204   1.401       .  A
C203        H207   1.084       .  S
C204        O208   1.371       .  S
O206        H210   0.992       .  S
O208        H209   0.992       .  S
C211        C212   1.403   1_455  A
C211        C216   1.409       .  A
C212        C213   1.400       .  A
C212        H217   1.084       .  S
C213        C214   1.407   1_655  A
C213        O218   1.371       .  S
C214        C215   1.402       .  A
C215        C216   1.400       .  A
C215        H219   1.084       .  S
C216        O220   1.372       .  S
O218        H222   0.992       .  S
O220        H221   0.992       .  S
C223        C224   1.403   1_455  A
C223        C228   1.409       .  A
C224        C225   1.396       .  A
C224        H229   1.084       .  S
C225        C226   1.409   1_655  A
C225        O230   1.373       .  S
C226        C227   1.405       .  A
C227        C228   1.406       .  A
C227        H231   1.083       .  S
C228        O232   1.371       .  S
O230        H234   0.992       .  S
O232        H233   0.992       .  S
C235        C236   1.402       .  A
C235        C240   1.408   1_455  A
C236        C237   1.397       .  A
C236        H241   1.084       .  S
C237        C238   1.407       .  A
C237        O242   1.372       .  S
C238        C239   1.403   1_455  A
C239        C240   1.403       .  A
C239        H243   1.084       .  S
C240        O244   1.371       .  S
O242        H246   0.992       .  S
O244        H245   0.992       .  S
C247        C248   1.401   1_455  A
C247        C252   1.408       .  A
C248        C249   1.403       .  A
C248        H253   1.084       .  S
C249        C250   1.407   1_655  A
C249        O254   1.372       .  S
C250        C251   1.404       .  A
C251        C252   1.402       .  A
C251        H255   1.084       .  S
C252        O256   1.371       .  S
O254        H258   0.991       .  S
O256        H257   0.992       .  S
C259        C260   1.402       .  A
C259        C264   1.406   1_545  A
C260        C261   1.401       .  A
C260        H265   1.084       .  S
C261        C262   1.412       .  A
C261        O266   1.373       .  S
C262        C263   1.408   1_545  A
C263        C264   1.399       .  A
C263        H267   1.083       .  S
C264        O268   1.372       .  S
O266        H270   0.992       .  S
O268        H269   0.992       .  S
C271        C272   1.403       .  A
C271        C276   1.409       .  A
C272        C273   1.396       .  A
C272        H277   1.084       .  S
C273        C274   1.408       .  A
C273        O278   1.373       .  S
C274        C275   1.405       .  A
C275        C276   1.405       .  A
C275        H279   1.083   1_545  S
C276        O280   1.371   1_545  S
O278        H282   0.992       .  S
O280        H281   0.992       .  S
C283        C284   1.406   1_545  A
C283        C288   1.414       .  A
C284        C285   1.400       .  A
C284        H289   1.083       .  S
C285        C286   1.410   1_565  A
C285        O290   1.372       .  S
C286        C287   1.403       .  A
C287        C288   1.400       .  A
C287        H291   1.084       .  S
C288        O292   1.373       .  S
O290        H294   0.992       .  S
O292        H293   0.992       .  S
C295        C296   1.402       .  A
C295        C300   1.408   1_545  A
C296        C297   1.394       .  A
C296        H301   1.084       .  S
C297        C298   1.406       .  A
C297        O302   1.373       .  S
C298        C299   1.404   1_545  A
C299        C300   1.405       .  A
C299        H303   1.084       .  S
C300        O304   1.371       .  S
O302        H306   0.992       .  S
O304        H305   0.992       .  S
C307        C308   1.406       .  A
C307        C312   1.412   1_545  A
C308        C309   1.399       .  A
C308        H313   1.083       .  S
C309        C310   1.408       .  A
C309        O314   1.372       .  S
C310        C311   1.403   1_545  A
C311        C312   1.402       .  A
C311        H315   1.084       .  S
C312        O316   1.373       .  S
O314        H318   0.992       .  S
O316        H317   0.992       .  S
C319        C320   1.402   1_545  A
C319        C324   1.407       .  A
C320        C321   1.396       .  A
C320        H325   1.084       .  S
C321        C322   1.406   1_565  A
C321        O326   1.372       .  S
C322        C323   1.403       .  A
C323        C324   1.403       .  A
C323        H327   1.084       .  S
C324        O328   1.371       .  S
O326        H330   0.992       .  S
O328        H329   0.992       .  S
C331        C332   1.403       .  A
C331        C336   1.408   1_545  A
C332        C333   1.395       .  A
C332        H337   1.084       .  S
C333        C334   1.406       .  A
C333        O338   1.373       .  S
C334        C335   1.404   1_545  A
C335        C336   1.405       .  A
C335        H339   1.083       .  S
C336        O340   1.371       .  S
O338        H342   0.992       .  S
O340        H341   0.992       .  S
C343        C344   1.407       .  A
C343        C348   1.413   1_545  A
C344        C345   1.399       .  A
C344        H349   1.083       .  S
C345        C346   1.408       .  A
C345        O350   1.372       .  S
C346        C347   1.402   1_545  A
C347        C348   1.399       .  A
C347        H351   1.084       .  S
C348        O352   1.373       .  S
O350        H354   0.992       .  S
O352        H353   0.992       .  S
C355        C356   1.403   1_556  A
C355        C360   1.408       .  A
C356        C357   1.399       .  A
C356        H361   1.084       .  S
C357        C358   1.406   1_554  A
C357        O362   1.372       .  S
C358        C359   1.402       .  A
C359        C360   1.400       .  A
C359        H363   1.084       .  S
C360        O364   1.372       .  S
O362        H366   0.992       .  S
O364        H365   0.992       .  S
C367        C368   1.403   1_556  A
C367        C372   1.406       .  A
C368        C369   1.402       .  A
C368        H373   1.084       .  S
C369        C370   1.407   1_554  A
C369        O374   1.371       .  S
C370        C371   1.401       .  A
C371        C372   1.395       .  A
C371        H375   1.084       .  S
C372        O376   1.372       .  S
O374        H378   0.992       .  S
O376        H377   0.992       .  S
C379        C380   1.402       .  A
C379        C384   1.408   1_556  A
C380        C381   1.400       .  A
C380        H385   1.084       .  S
C381        C382   1.413       .  A
C381        O386   1.373       .  S
C382        C383   1.407   1_556  A
C383        C384   1.400       .  A
C383        H387   1.083       .  S
C384        O388   1.372       .  S
O386        H390   0.992       .  S
O388        H389   0.992       .  S
C391        C392   1.402       .  A
C391        C396   1.408   1_554  A
C392        C393   1.394       .  A
C392        H397   1.084       .  S
C393        C394   1.406       .  A
C393        O398   1.373       .  S
C394        C395   1.404   1_554  A
C395        C396   1.405       .  A
C395        H399   1.083       .  S
C396        O400   1.371       .  S
O398        H402   0.992       .  S
O400        H401   0.992       .  S
C403        C404   1.404       .  A
C403        C408   1.408   1_554  A
C404        C405   1.403       .  A
C404        H409   1.084       .  S
C405        C406   1.416       .  A
C405        O410   1.372       .  S
C406        C407   1.407   1_554  A
C407        C408   1.396       .  A
C407        H411   1.083       .  S
C408        O412   1.369       .  S
O410        H414   0.992       .  S
O412        H413   0.992       .  S
C415        C416   1.401       .  A
C415        C420   1.408   1_554  A
C416        C417   1.396       .  A
C416        H421   1.084       .  S
C417        C418   1.408       .  A
C417        O422   1.373       .  S
C418        C419   1.405   1_554  A
C419        C420   1.405       .  A
C419        H423   1.083       .  S
C420        O424   1.371       .  S
O422        H426   0.992       .  S
O424        H425   0.992       .  S
C427        C428   1.403   1_554  A
C427        C432   1.406       .  A
C428        C429   1.401       .  A
C428        H433   1.084       .  S
C429        C430   1.407   1_556  A
C429        O434   1.371       .  S
C430        C431   1.402       .  A
C431        C432   1.398       .  A
C431        H435   1.084       .  S
C432        O436   1.371       .  S
O434        H438   0.992       .  S
O436        H437   0.992       .  S
C439        C440   1.407   1_556  A
C439        C444   1.412       .  A
C440        C441   1.400       .  A
C440        H445   1.083       .  S
C441        C442   1.408   1_554  A
C441        O446   1.372       .  S
C442        C443   1.403       .  A
C443        C444   1.401       .  A
C443        H447   1.082       .  S
C444        O448   1.373       .  S
O446        H450   0.992       .  S
O448        H449   0.992       .  S
