geometry optimzed in LAMMPS
_audit_creation_date              2020-12-01 
_audit_creation_method            'lammps2cif' 
_symmetry_space_group_name_H-M    'P1' 
_symmetry_Int_Tables_number       1 
_symmetry_cell_setting            triclinic 
loop_ 
_symmetry_equiv_pos_as_xyz 
  x,y,z 
_cell_length_a                    45.89817569 
_cell_length_b                    38.91896508925789 
_cell_length_c                    38.122543354619935 
_cell_angle_alpha                 90.31767430766233 
_cell_angle_beta                  90.64188126685971 
_cell_angle_gamma                 89.98205310641704 
loop_ 
_atom_site_label 
_atom_site_type_symbol 
_atom_site_fract_x 
_atom_site_fract_y 
_atom_site_fract_z 
_atom_site_charge 
O1          O  0.45584631  0.42558966  0.43193949    -0.75700
O2          O  0.42210899  0.45731623  0.46159645    -0.54600
C3          C  0.42949068  0.43381959  0.43966870     0.78100
O4          O  0.05494657  0.42586520  0.06870344    -0.60300
O5          O  0.08884015  0.45619194  0.03820426    -0.53300
C6          C  0.08130254  0.43346119  0.06063996     0.70100
O7          O  0.45671639  0.42606168  0.06707887    -0.74800
O8          O  0.42276566  0.45793966  0.03738921    -0.55400
C9          C  0.43034289  0.43464028  0.05938505     0.76100
O10         O  0.05469639  0.42708678  0.43018930    -0.60000
O11         O  0.08885864  0.45682077  0.46214205    -0.53100
C12         C  0.08113176  0.43460233  0.43887353     0.72700
Zr13       Zr  0.50545055  0.44431535  0.44682533     2.54700
O14         O  0.50584256  0.38194616  0.44199399    -0.80500
O15         O  0.00568713  0.44629697  0.38328210    -0.94000
Zr16       Zr  0.50596541  0.44349825  0.05133719     2.64700
O17         O  0.50574299  0.38094483  0.04864541    -0.98900
O18         O  0.00586009  0.44440603  0.11522749    -0.81000
O19         O  0.47748858  0.44340873  0.99903055    -0.84300
O20         O  0.03367522  0.44281868  0.99939436    -2.19000
O21         O  0.05496804  0.06166687  0.43045690    -0.67700
O22         O  0.08893016  0.03195671  0.46240037    -0.52300
C23         C  0.08134079  0.05389941  0.43904504     0.71000
O24         O  0.45754231  0.06436091  0.06798189    -0.60600
O25         O  0.42323126  0.03406843  0.03681444    -0.52600
C26         C  0.43108651  0.05693316  0.05938437     0.72800
O27         O  0.05574581  0.06378187  0.06959001    -0.72000
O28         O  0.08935420  0.03262414  0.03911385    -0.50700
C29         C  0.08203438  0.05580216  0.06142861     0.74200
O30         O  0.45666776  0.06440679  0.43151587    -0.67400
O31         O  0.42279868  0.03294591  0.46089137    -0.54600
C32         C  0.43030291  0.05602768  0.43883682     0.72600
Zr33       Zr  0.00570965  0.04645504  0.44842916     2.77500
O34         O  0.50692660  0.10903249  0.45071008    -0.98100
O35         O  0.50514114  0.04545832  0.38453928    -0.78900
Zr36       Zr  0.00644392  0.04581797  0.05301588     2.70100
O37         O  0.00668461  0.10833996  0.05467030    -0.80200
O38         O  0.50667687  0.03893364  0.11618554    -0.99300
Zr39       Zr  0.45006148  0.99529092  0.99938627     2.21500
Zr40       Zr  0.06167278  0.49449097  0.50022244     2.11100
O41         O  0.03413261  0.04680750  0.50070434    -2.47900
O42         O  0.47797552  0.04718445  0.50040800    -0.80000
O43         O  0.03392986  0.49493534  0.44710993    -0.72200
O44         O  0.47782843  0.99467322  0.05261714    -2.33100
O45         O  0.47749149  0.99557241  0.44667594    -2.29300
O46         O  0.03448654  0.49426510  0.05333708    -0.73900
H47         H  0.04614288  0.42283730  0.99921802     0.78100
H48         H  0.46530118  0.99475358  0.07276063     0.79200
H49         H  0.04677726  0.06663699  0.50084894     0.81400
H50         H  0.46476927  0.99569437  0.42631534     0.79000
H51         H  0.51746223  0.46326838  0.12221236     0.42000
H52         H  0.02403016  0.02737362  0.12237784     0.41000
H53         H  0.49798916  0.11537423  0.03403740     0.40700
H54         H  0.02318719  0.11488607  0.46630075     0.38600
H55         H  0.01905924  0.02855185  0.37787310     0.41700
H56         H  0.48615370  0.45936707  0.37710334     0.36500
H57         H  0.50180944  0.37387887  0.46603538     0.42600
H58         H  0.02326468  0.37438301  0.03709274     0.39100
H59         H  0.51212472  0.11605541  0.42665454     0.44000
H60         H  0.00322649  0.42209110  0.37569007     0.42700
H61         H  0.51194103  0.37363244  0.07242059     0.42800
H62         H  0.01181765  0.06485620  0.12509141     0.43200
C63         C  0.14123618  0.11061759  0.38598151     0.86100
C64         C  0.13721342  0.10584186  0.34635984    -0.54100
C65         C  0.15436690  0.12697246  0.32696850     0.09000
C66         C  0.17377911  0.15091261  0.34949354     0.20000
C67         C  0.17406171  0.10547171  0.39297081    -0.54900
C68         C  0.19151677  0.12668748  0.37362090     0.09100
C69         C  0.13546263  0.14879515  0.39290780    -0.54400
C70         C  0.15271668  0.16997271  0.37389106     0.09700
H71         H  0.12248987  0.08696733  0.33483626     0.14200
H72         H  0.18661685  0.16880879  0.33344217     0.00000
H73         H  0.18242609  0.08690773  0.41166977     0.14500
H74         H  0.11950739  0.15822612  0.41147676     0.14300
C75         C  0.14079751  0.37717716  0.38549386     0.86100
C76         C  0.13541431  0.33906015  0.39262022    -0.54100
C77         C  0.15262053  0.31779409  0.37340260     0.09000
C78         C  0.17332348  0.33670393  0.34868259     0.20000
C79         C  0.17360309  0.38276959  0.39201820    -0.54900
C80         C  0.19105193  0.36149162  0.37250536     0.09100
C81         C  0.13636394  0.38134640  0.34590525    -0.54400
C82         C  0.15349500  0.36009289  0.32635908     0.09700
H83         H  0.11969523  0.32972389  0.41141403     0.14200
H84         H  0.18615121  0.31871291  0.33251022     0.00000
H85         H  0.18195133  0.40162729  0.41062141     0.14500
H86         H  0.12142210  0.39994040  0.33450608     0.14300
C87         C  0.14266630  0.37735887  0.11436249     0.86100
C88         C  0.13827212  0.38177109  0.15395100    -0.54100
C89         C  0.15665148  0.36227273  0.17417373     0.09000
C90         C  0.17800948  0.34068833  0.15223117     0.20000
C91         C  0.17481378  0.38568265  0.10814804    -0.54900
C92         C  0.19350818  0.36646736  0.12811112     0.09100
C93         C  0.13980953  0.33865732  0.10751061    -0.54400
C94         C  0.15830587  0.31926326  0.12761003     0.09700
H95         H  0.12195637  0.39889104  0.16476352     0.14200
H96         H  0.19329619  0.32456339  0.16763789     0.00000
H97         H  0.18207543  0.40517667  0.08994273     0.14500
H98         H  0.12397059  0.32763801  0.08930614     0.14300
C99         C  0.14373830  0.11234105  0.11448869     0.86100
C100        C  0.14040939  0.15097191  0.10830277    -0.54100
C101        C  0.15867815  0.17058796  0.12864443     0.09000
C102        C  0.17853536  0.14936142  0.15314494     0.20000
C103        C  0.17602308  0.10462322  0.10817974    -0.54900
C104        C  0.19446384  0.12403061  0.12857841     0.09100
C105        C  0.13935481  0.10753493  0.15392192    -0.54400
C106        C  0.15744875  0.12708765  0.17461478     0.09700
H107        H  0.12458355  0.16178611  0.09006739     0.14200
H108        H  0.19349892  0.16566847  0.16898593     0.00000
H109        H  0.18353604  0.08543890  0.08956690     0.14500
H110        H  0.12334999  0.08987644  0.16429520     0.14300
C111        C  0.36952976  0.11151963  0.38379776     0.86100
C112        C  0.37476930  0.14991278  0.39012705    -0.54100
C113        C  0.35697707  0.17046249  0.37060161     0.09000
C114        C  0.33589438  0.15061444  0.34629886     0.20000
C115        C  0.33693881  0.10580600  0.39057581    -0.54900
C116        C  0.31890391  0.12635793  0.37081104     0.09100
C117        C  0.37316156  0.10626660  0.34429787    -0.54400
C118        C  0.35564371  0.12696427  0.32434910     0.09700
H119        H  0.39083797  0.15995639  0.40864902     0.14200
H120        H  0.32212169  0.16749531  0.32981449     0.00000
H121        H  0.32913082  0.08761282  0.40977028     0.14500
H122        H  0.38891419  0.08854560  0.33323819     0.14300
C123        C  0.37080625  0.11359888  0.11283596     0.86100
C124        C  0.37531272  0.10895009  0.15240815    -0.54100
C125        C  0.35742718  0.12897466  0.17235032     0.09000
C126        C  0.33669730  0.15158545  0.15044183     0.20000
C127        C  0.33836486  0.10643338  0.10597971    -0.54900
C128        C  0.32035983  0.12629206  0.12598628     0.09100
C129        C  0.37464922  0.15210724  0.10646697    -0.54400
C130        C  0.35661920  0.17222528  0.12612393     0.09700
H131        H  0.39148499  0.09166306  0.16354353     0.14200
H132        H  0.32210929  0.16780290  0.16654687     0.00000
H133        H  0.33045218  0.08690397  0.08778728     0.14500
H134        H  0.38993895  0.16239165  0.08769281     0.14300
C135        C  0.36971244  0.37941291  0.11339667     0.86100
C136        C  0.37344098  0.34096950  0.10604934    -0.54100
C137        C  0.35532291  0.32066094  0.12513755     0.09000
C138        C  0.33531127  0.34103805  0.14977590     0.20000
C139        C  0.33732179  0.38683740  0.10653281    -0.54900
C140        C  0.31920560  0.36676432  0.12591143     0.09100
C141        C  0.37404083  0.38341854  0.15320941    -0.54400
C142        C  0.35596083  0.36313157  0.17248852     0.09700
H143        H  0.38892610  0.33085124  0.08729119     0.14200
H144        H  0.32054674  0.32471395  0.16533318     0.00000
H145        H  0.32951101  0.40662259  0.08878171     0.14500
H146        H  0.39023639  0.40039885  0.16495375     0.14300
C147        C  0.36883413  0.37729499  0.38462453     0.86100
C148        C  0.37281548  0.38214697  0.34513299    -0.54100
C149        C  0.35534201  0.36143827  0.32485046     0.09000
C150        C  0.33552213  0.33789805  0.34652586     0.20000
C151        C  0.33617576  0.38314042  0.39091188    -0.54900
C152        C  0.31833796  0.36238468  0.37086699     0.09100
C153        C  0.37392081  0.33896560  0.39098458    -0.54400
C154        C  0.35635913  0.31826026  0.37111333     0.09700
H155        H  0.38850225  0.39996058  0.33431961     0.14200
H156        H  0.32193700  0.32086666  0.32980819     0.00000
H157        H  0.32818343  0.40154836  0.40999404     0.14500
H158        H  0.38978377  0.32905899  0.40973217     0.14300
C159        C  0.36135095  0.39270917  0.23091301    -0.13700
C160        C  0.35600944  0.36256047  0.21150554     0.08400
C161        C  0.35034148  0.33194348  0.22960535    -0.13700
C162        C  0.35019301  0.33149692  0.26633352    -0.13700
C163        C  0.35558017  0.36170345  0.28575970     0.08400
C164        C  0.36110304  0.39229892  0.26756712    -0.13700
H165        H  0.36521371  0.41683014  0.21775183     0.12400
H166        H  0.34661101  0.30813222  0.21543772     0.12400
H167        H  0.34644946  0.30731470  0.27942017     0.12400
H168        H  0.36476719  0.41616198  0.28164033     0.12400
C169        C  0.32999679  0.22825066  0.12868562    -0.13700
C170        C  0.35620222  0.21022995  0.12421391     0.08400
C171        C  0.38196960  0.22874490  0.11852058    -0.13700
C172        C  0.38162078  0.26460784  0.11806763    -0.13700
C173        C  0.35549641  0.28263652  0.12330125     0.08300
C174        C  0.32964159  0.26409814  0.12819523    -0.13700
H175        H  0.30966285  0.21468398  0.13221216     0.12400
H176        H  0.40256413  0.21557179  0.11542047     0.12400
H177        H  0.40197293  0.27818569  0.11472655     0.12400
H178        H  0.30904813  0.27724287  0.13141348     0.12400
C179        C  0.35164046  0.15828614  0.26707649    -0.13700
C180        C  0.35653977  0.12753412  0.28538086     0.08400
C181        C  0.36241103  0.09741568  0.26621437    -0.13700
C182        C  0.36300741  0.09794974  0.22958935    -0.13700
C183        C  0.35767562  0.12858903  0.21129572     0.08400
C184        C  0.35211648  0.15878197  0.23041976    -0.13700
H185        H  0.34791726  0.18216113  0.28101111     0.12400
H186        H  0.36596164  0.07322307  0.27946563     0.12400
H187        H  0.36696763  0.07416139  0.21558300     0.12400
H188        H  0.34858800  0.18295298  0.21710618     0.12400
C189        C  0.38358398  0.26251712  0.37018648    -0.13700
C190        C  0.35716948  0.28045308  0.37313000     0.08400
C191        C  0.33125190  0.26210513  0.37744046    -0.13700
C192        C  0.33145183  0.22632920  0.37736926    -0.13700
C193        C  0.35753711  0.20828832  0.37288292     0.08400
C194        C  0.38377114  0.22655222  0.37003175    -0.13700
H195        H  0.40386679  0.27631858  0.36704847     0.12400
H196        H  0.31091259  0.27540274  0.38144156     0.12400
H197        H  0.31127960  0.21278542  0.38141009     0.12400
H198        H  0.40419379  0.21302387  0.36676037     0.12400
C199        C  0.24312420  0.12533381  0.15829805    -0.13700
C200        C  0.22675012  0.12153599  0.12729595     0.08400
C201        C  0.24151590  0.11687775  0.09546801    -0.13700
C202        C  0.27208855  0.11754490  0.09479748    -0.13700
C203        C  0.28821064  0.12298750  0.12592831     0.08400
C204        C  0.27339710  0.12620975  0.15767317    -0.13700
H205        H  0.23263364  0.12745221  0.18324999     0.12400
H206        H  0.22947529  0.11389785  0.07105695     0.12400
H207        H  0.28304640  0.11496743  0.06991540     0.12400
H208        H  0.28523033  0.12924601  0.18223172     0.12400
C209        C  0.15380708  0.26251089  0.09626084    -0.13700
C210        C  0.15829107  0.28116976  0.12748738     0.08400
C211        C  0.16280472  0.26324822  0.15896044    -0.13700
C212        C  0.16305750  0.22738930  0.15921539    -0.13700
C213        C  0.15868627  0.20868759  0.12802256     0.08400
C214        C  0.15402973  0.22657950  0.09652134    -0.13700
H215        H  0.15057148  0.27568599  0.07158111     0.12400
H216        H  0.16558167  0.27691446  0.18358728     0.12400
H217        H  0.16602515  0.21433484  0.18400754     0.12400
H218        H  0.15094395  0.21280159  0.07201184     0.12400
C219        C  0.24201521  0.36703097  0.15805188    -0.13700
C220        C  0.22569682  0.36975899  0.12693762     0.08400
C221        C  0.24042271  0.37427064  0.09511743    -0.13700
C222        C  0.27099282  0.37446856  0.09454876    -0.13700
C223        C  0.28709658  0.37000349  0.12577794     0.08400
C224        C  0.27229428  0.36701912  0.15752146    -0.13700
H225        H  0.23144572  0.36506330  0.18297904     0.12400
H226        H  0.22836402  0.37644126  0.07065593     0.12400
H227        H  0.28198555  0.37680646  0.06969048     0.12400
H228        H  0.28416387  0.36463566  0.18210615     0.12400
C229        C  0.12855233  0.36792122  0.26772837    -0.13700
C230        C  0.15375718  0.36021011  0.28742356     0.08400
C231        C  0.17954711  0.35251945  0.26967623    -0.13700
C232        C  0.18022869  0.35255230  0.23316793    -0.13700
C233        C  0.15538192  0.36114866  0.21324768     0.08400
C234        C  0.12935786  0.36841636  0.23105344    -0.13700
H235        H  0.10811629  0.37320130  0.28059337     0.12400
H236        H  0.19954529  0.34710623  0.28390146     0.12400
H237        H  0.20055220  0.34628621  0.22098672     0.12400
H238        H  0.10943149  0.37399392  0.21677029     0.12400
C239        C  0.23953950  0.33341651  0.36204356    -0.13700
C240        C  0.22370767  0.36211576  0.37358831     0.08400
C241        C  0.23947657  0.39122246  0.38512142    -0.13700
C242        C  0.27009392  0.39146383  0.38467119    -0.13700
C243        C  0.28573481  0.36262097  0.37263637     0.08400
C244        C  0.26981432  0.33366909  0.36157641    -0.13700
H245        H  0.22895302  0.31017146  0.35334868     0.12400
H246        H  0.22831425  0.41420338  0.39368857     0.12400
H247        H  0.28133742  0.41459665  0.39294011     0.12400
H248        H  0.28035731  0.31061527  0.35254739     0.12400
C249        C  0.18053130  0.13481928  0.27043154    -0.13700
C250        C  0.15483693  0.12651555  0.28800943     0.08400
C251        C  0.12979149  0.11839181  0.26810848    -0.13700
C252        C  0.13055094  0.11860604  0.23142275    -0.13700
C253        C  0.15635416  0.12706816  0.21376096     0.08400
C254        C  0.18113047  0.13559470  0.23391476    -0.13700
H255        H  0.20045650  0.14041398  0.28478907     0.12400
H256        H  0.10943756  0.11249497  0.28081304     0.12400
H257        H  0.11067937  0.11285223  0.21704822     0.12400
H258        H  0.20127581  0.14266317  0.22189061     0.12400
C259        C  0.24016795  0.09737577  0.38597763    -0.13700
C260        C  0.22420597  0.12636774  0.37484976     0.08400
C261        C  0.23988543  0.15509929  0.36339776    -0.13700
C262        C  0.27016298  0.15491092  0.36240564    -0.13700
C263        C  0.28628147  0.12607414  0.37305486     0.08400
C264        C  0.27080063  0.09724747  0.38512972    -0.13700
H265        H  0.22912639  0.07437103  0.39443724     0.12400
H266        H  0.22916952  0.17822979  0.35489470     0.12400
H267        H  0.28054726  0.17785667  0.35313286     0.12400
H268        H  0.28218179  0.07417409  0.39305230     0.12400
C269        C  0.17803376  0.22608307  0.38014029    -0.13700
C270        C  0.15188391  0.20780930  0.37668439     0.08400
C271        C  0.12544692  0.22589918  0.37460079    -0.13700
C272        C  0.12544977  0.26189176  0.37440141    -0.13700
C273        C  0.15188655  0.28001293  0.37622187     0.08400
C274        C  0.17805148  0.26183600  0.37980193    -0.13700
H275        H  0.19847011  0.21272585  0.38344259     0.12400
H276        H  0.10498547  0.21222037  0.37201312     0.12400
H277        H  0.10498484  0.27553664  0.37172207     0.12400
H278        H  0.19851077  0.27527634  0.38275414     0.12400
C279        C  0.10412617  0.07168240  0.42138338    -0.13700
C280        C  0.12209477  0.08825019  0.40613846    -0.15200
C281        C  0.10408268  0.41470949  0.07804711    -0.13700
C282        C  0.12222288  0.39811682  0.09355994    -0.15200
C283        C  0.39060847  0.09235645  0.09209531    -0.13700
C284        C  0.40852980  0.07577957  0.07657713    -0.15200
C285        C  0.10502974  0.07473977  0.07836521    -0.13700
C286        C  0.12341109  0.09145540  0.09347165    -0.15200
C287        C  0.38840946  0.39902265  0.40590421    -0.13700
C288        C  0.40651349  0.41533351  0.42202152    -0.15200
C289        C  0.40742368  0.07393110  0.42072482    -0.13700
C290        C  0.38924922  0.08997080  0.40469514    -0.15200
C291        C  0.12171307  0.39960767  0.40590888    -0.13700
C292        C  0.10382141  0.41632047  0.42132093    -0.15200
C293        C  0.40760237  0.41673472  0.07712114    -0.13700
C294        C  0.38966214  0.40068881  0.09303835    -0.15200
O295        O  0.45582160  0.42627784  0.93134103    -0.75700
O296        O  0.42217566  0.45745525  0.96173448    -0.54600
C297        C  0.42948338  0.43430485  0.93935336     0.78100
O298        O  0.05520373  0.42659558  0.56909832    -0.60300
O299        O  0.08908530  0.45655918  0.53819847    -0.53300
C300        C  0.08154998  0.43412251  0.56090084     0.70100
O301        O  0.45686349  0.42573632  0.56669331    -0.74800
O302        O  0.42293085  0.45734767  0.53666592    -0.55400
C303        C  0.43051839  0.43411938  0.55873495     0.76100
O304        O  0.05484180  0.42709540  0.93067413    -0.60000
O305        O  0.08898729  0.45750656  0.96196268    -0.53100
C306        C  0.08129632  0.43491781  0.93904536     0.72700
Zr307      Zr  0.50542055  0.44437814  0.94705938     2.54700
O308        O  0.50639036  0.38183708  0.94642512    -0.80500
O309        O  0.00626237  0.44664645  0.88319252    -0.94000
Zr310      Zr  0.50593684  0.44383692  0.55141308     2.64700
O311        O  0.50513090  0.38128528  0.55144079    -0.98900
O312        O  0.00633567  0.44325272  0.61516157    -0.81000
O313        O  0.47765697  0.44349694  0.49892330    -0.84300
O314        O  0.03385997  0.44282797  0.49937726    -2.19000
O315        O  0.05533065  0.06183647  0.93081401    -0.67700
O316        O  0.08915680  0.03182390  0.96272500    -0.52300
C317        C  0.08168204  0.05387370  0.93938768     0.71000
O318        O  0.45750249  0.06461030  0.56821401    -0.60600
O319        O  0.42325600  0.03429744  0.53695949    -0.52600
C320        C  0.43104569  0.05714760  0.55960320     0.72800
O321        O  0.05612948  0.06319666  0.56919024    -0.72000
O322        O  0.08972846  0.03266073  0.53809336    -0.50700
C323        C  0.08242472  0.05551494  0.56074413     0.74200
O324        O  0.45658539  0.06455904  0.93189003    -0.67400
O325        O  0.42270123  0.03348533  0.96167616    -0.54600
C326        C  0.43022028  0.05645588  0.93953397     0.72600
Zr327      Zr  0.00595526  0.04661077  0.94854619     2.77500
O328        O  0.50631772  0.10882449  0.95019883    -0.98100
O329        O  0.50446921  0.04341237  0.88446032    -0.78900
Zr330      Zr  0.00655958  0.04579510  0.55285486     2.70100
O331        O  0.00817343  0.10828917  0.55447578    -0.80200
O332        O  0.50598889  0.04258425  0.61647981    -0.99300
Zr333      Zr  0.45020970  0.99551960  0.49951522     2.21500
Zr334      Zr  0.06149134  0.49454447  0.00038176     2.11100
O335        O  0.03423332  0.04677446  0.00098206    -2.47900
O336        O  0.47806399  0.04676266  0.00034022    -0.80000
O337        O  0.03371738  0.49517497  0.94724704    -0.72200
O338        O  0.47798526  0.99490212  0.55279049    -2.33100
O339        O  0.47722477  0.99555958  0.94653641    -2.29300
O340        O  0.03464337  0.49420450  0.55317415    -0.73900
H341        H  0.04637451  0.42289021  0.49921682     0.78100
H342        H  0.46547212  0.99492570  0.57295052     0.79200
H343        H  0.04690234  0.06658318  0.00118191     0.81400
H344        H  0.46443155  0.99585020  0.92624484     0.79000
H345        H  0.48789084  0.45910309  0.62128731     0.42000
H346        H  0.02510060  0.03039987  0.62268041     0.41000
H347        H  0.50203597  0.11495878  0.52964822     0.40700
H348        H  0.02462870  0.11510754  0.96398901     0.38600
H349        H  0.01637522  0.02409301  0.87859058     0.41700
H350        H  0.48750998  0.46153988  0.87735778     0.36500
H351        H  0.49529062  0.37512443  0.96742537     0.42600
H352        H  0.02167077  0.37519107  0.53100081     0.39100
H353        H  0.51335275  0.11578654  0.92683557     0.44000
H354        H  0.00620509  0.42228061  0.87557434     0.42700
H355        H  0.51444395  0.37474107  0.57398551     0.42800
H356        H  0.00932627  0.06602548  0.62475838     0.43200
C357        C  0.14146961  0.11041644  0.88578468     0.86100
C358        C  0.13712288  0.10591834  0.84615518    -0.54100
C359        C  0.15414017  0.12718989  0.82674110     0.09000
C360        C  0.17378652  0.15092430  0.84919258     0.20000
C361        C  0.17432993  0.10519960  0.89235089    -0.54900
C362        C  0.19165121  0.12654810  0.87298221     0.09100
C363        C  0.13581731  0.14858407  0.89301224    -0.54400
C364        C  0.15294388  0.16985169  0.87391411     0.09700
H365        H  0.12227247  0.08718459  0.83462351     0.14200
H366        H  0.18656449  0.16889385  0.83313684     0.00000
H367        H  0.18281160  0.08657093  0.91090502     0.14500
H368        H  0.11998434  0.15794248  0.91176513     0.14300
C369        C  0.14081607  0.37706158  0.88563407     0.86100
C370        C  0.13533729  0.33889010  0.89245080    -0.54100
C371        C  0.15245741  0.31770007  0.87300986     0.09000
C372        C  0.17314975  0.33673039  0.84836007     0.20000
C373        C  0.17367459  0.38243974  0.89206869    -0.54900
C374        C  0.19102162  0.36125360  0.87229660     0.09100
C375        C  0.13631752  0.38156377  0.84609219    -0.54400
C376        C  0.15335664  0.36042810  0.82629388     0.09700
H377        H  0.11967896  0.32946304  0.91127008     0.14200
H378        H  0.18591268  0.31879757  0.83204122     0.00000
H379        H  0.18213385  0.40113472  0.91077031     0.14500
H380        H  0.12146233  0.40037895  0.83491523     0.14300
C381        C  0.14298123  0.37808755  0.61423733     0.86100
C382        C  0.13864387  0.38275506  0.65376705    -0.54100
C383        C  0.15689741  0.36323544  0.67407925     0.09000
C384        C  0.17813649  0.34131936  0.65221521     0.20000
C385        C  0.17514335  0.38616525  0.60791639    -0.54900
C386        C  0.19375438  0.36689887  0.62793325     0.09100
C387        C  0.13991264  0.33938105  0.60752390    -0.54400
C388        C  0.15833120  0.31990506  0.62763531     0.09700
H389        H  0.12246444  0.40011987  0.66447789     0.14200
H390        H  0.19333145  0.32514393  0.66770486     0.00000
H391        H  0.18247865  0.40554449  0.58962437     0.14500
H392        H  0.12404521  0.32841827  0.58931936     0.14300
C393        C  0.14351623  0.11255532  0.61437172     0.86100
C394        C  0.14010917  0.15119183  0.60792047    -0.54100
C395        C  0.15818914  0.17101631  0.62834577     0.09000
C396        C  0.17799897  0.14996418  0.65306601     0.20000
C397        C  0.17585651  0.10494362  0.60839794    -0.54900
C398        C  0.19413374  0.12457032  0.62876056     0.09100
C399        C  0.13890405  0.10798559  0.65381505    -0.54400
C400        C  0.15683614  0.12775587  0.67448984     0.09700
H401        H  0.12435866  0.16184913  0.58949670     0.14200
H402        H  0.19285587  0.16637598  0.66895014     0.00000
H403        H  0.18353924  0.08567754  0.58997331     0.14500
H404        H  0.12289006  0.09035970  0.66424113     0.14300
C405        C  0.36946576  0.11156126  0.88421632     0.86100
C406        C  0.37473914  0.14995228  0.89049914    -0.54100
C407        C  0.35702097  0.17048549  0.87087711     0.09000
C408        C  0.33598997  0.15066973  0.84654571     0.20000
C409        C  0.33685885  0.10591813  0.89087941    -0.54900
C410        C  0.31893434  0.12650915  0.87101610     0.09100
C411        C  0.37318287  0.10621830  0.84472133    -0.54400
C412        C  0.35574288  0.12695443  0.82469281     0.09700
H413        H  0.39078023  0.16001086  0.90904764     0.14200
H414        H  0.32224045  0.16756293  0.83004543     0.00000
H415        H  0.32895617  0.08775796  0.91005308     0.14500
H416        H  0.38891417  0.08842564  0.83373626     0.14300
C417        C  0.37056106  0.11373154  0.61312742     0.86100
C418        C  0.37515719  0.10915050  0.65269693    -0.54100
C419        C  0.35727284  0.12913126  0.67268710     0.09000
C420        C  0.33647551  0.15170757  0.65083483     0.20000
C421        C  0.33809197  0.10652100  0.60639598    -0.54900
C422        C  0.32010691  0.12640945  0.62642697     0.09100
C423        C  0.37430938  0.15225140  0.60671367    -0.54400
C424        C  0.35631740  0.17237073  0.62644380     0.09700
H425        H  0.39138644  0.09191870  0.66380052     0.14200
H426        H  0.32190292  0.16788922  0.66699484     0.00000
H427        H  0.33014580  0.08701272  0.58820246     0.14500
H428        H  0.38954352  0.16253614  0.58787765     0.14300
C429        C  0.36993989  0.37947633  0.61315021     0.86100
C430        C  0.37367938  0.34095907  0.60629108    -0.54100
C431        C  0.35552643  0.32088080  0.62556902     0.09000
C432        C  0.33550457  0.34157263  0.64991794     0.20000
C433        C  0.33757464  0.38683660  0.60610285    -0.54900
C434        C  0.31943250  0.36703886  0.62572093     0.09100
C435        C  0.37422614  0.38400548  0.65292321    -0.54400
C436        C  0.35616376  0.36388000  0.67237475     0.09700
H437        H  0.38915249  0.33064088  0.58763155     0.14200
H438        H  0.32072983  0.32547156  0.66569927     0.00000
H439        H  0.32980065  0.40639606  0.58806761     0.14500
H440        H  0.39042615  0.40107756  0.66452436     0.14300
C441        C  0.36889876  0.37732154  0.88438374     0.86100
C442        C  0.37293609  0.38223664  0.84493148    -0.54100
C443        C  0.35555775  0.36152361  0.82457406     0.09000
C444        C  0.33573124  0.33784475  0.84609970     0.20000
C445        C  0.33618627  0.38301134  0.89056223    -0.54900
C446        C  0.31842000  0.36221939  0.87042454     0.09100
C447        C  0.37405580  0.33897011  0.89068462    -0.54400
C448        C  0.35655061  0.31823939  0.87073194     0.09700
H449        H  0.38857609  0.40013798  0.83416376     0.14200
H450        H  0.32223506  0.32078914  0.82927710     0.00000
H451        H  0.32811124  0.40137283  0.90963468     0.14500
H452        H  0.38989360  0.32906988  0.90946476     0.14300
C453        C  0.36113514  0.39345342  0.73085566    -0.13700
C454        C  0.35642925  0.36323318  0.71134888     0.08400
C455        C  0.35148533  0.33235391  0.72928661    -0.13700
C456        C  0.35126121  0.33172369  0.76599014    -0.13700
C457        C  0.35589081  0.36200141  0.78552851     0.08400
C458        C  0.36080888  0.39285666  0.76751320    -0.13700
H459        H  0.36451318  0.41772020  0.71776430     0.12400
H460        H  0.34830137  0.30851288  0.71497819     0.12400
H461        H  0.34800350  0.30739373  0.77899671     0.12400
H462        H  0.36392698  0.41673964  0.78174336     0.12400
C463        C  0.32991727  0.22856768  0.62967171    -0.13700
C464        C  0.35598634  0.21039991  0.62466658     0.08400
C465        C  0.38175177  0.22879861  0.61861511    -0.13700
C466        C  0.38154762  0.26465742  0.61827432    -0.13700
C467        C  0.35556623  0.28283528  0.62397273     0.08300
C468        C  0.32970525  0.26442368  0.62929231    -0.13700
H469        H  0.30956630  0.21512339  0.63348863     0.12400
H470        H  0.40225925  0.21553836  0.61513261     0.12400
H471        H  0.40191842  0.27810064  0.61459915     0.12400
H472        H  0.30919505  0.27765722  0.63284220     0.12400
C473        C  0.35164765  0.15831595  0.76746863    -0.13700
C474        C  0.35665948  0.12755726  0.78572938     0.08400
C475        C  0.36253966  0.09747735  0.76651489    -0.13700
C476        C  0.36302113  0.09805585  0.72988386    -0.13700
C477        C  0.35757744  0.12870100  0.71163729     0.08400
C478        C  0.35199784  0.15885257  0.73081424    -0.13700
H479        H  0.34792624  0.18217657  0.78142764     0.12400
H480        H  0.36617090  0.07328141  0.77972892     0.12400
H481        H  0.36698768  0.07429370  0.71583568     0.12400
H482        H  0.34837297  0.18302867  0.71754619     0.12400
C483        C  0.38362127  0.26243631  0.86902393    -0.13700
C484        C  0.35731961  0.28043347  0.87280207     0.08400
C485        C  0.33147607  0.26216407  0.87802723    -0.13700
C486        C  0.33165697  0.22637188  0.87823282    -0.13700
C487        C  0.35762840  0.20828678  0.87301806     0.08400
C488        C  0.38377549  0.22647678  0.86907759    -0.13700
H489        H  0.40382242  0.27619207  0.86510383     0.12400
H490        H  0.31122769  0.27555752  0.88247286     0.12400
H491        H  0.31157521  0.21284227  0.88296740     0.12400
H492        H  0.40408256  0.21288159  0.86514261     0.12400
C493        C  0.24279387  0.12577076  0.65858826    -0.13700
C494        C  0.22644080  0.12221990  0.62754495     0.08400
C495        C  0.24124041  0.11776711  0.59570763    -0.13700
C496        C  0.27181977  0.11827287  0.59509070    -0.13700
C497        C  0.28793187  0.12331626  0.62629376     0.08400
C498        C  0.27308157  0.12645697  0.65802594    -0.13700
H499        H  0.23228683  0.12776273  0.68352145     0.12400
H500        H  0.22921553  0.11501165  0.57125816     0.12400
H501        H  0.28280004  0.11583814  0.57020892     0.12400
H502        H  0.28490284  0.12926369  0.68262114     0.12400
C503        C  0.15395404  0.26315060  0.59605014    -0.13700
C504        C  0.15820256  0.28175864  0.62738455     0.08400
C505        C  0.16221983  0.26372694  0.65886843    -0.13700
C506        C  0.16215989  0.22784184  0.65906069    -0.13700
C507        C  0.15807266  0.20917578  0.62777200     0.08400
C508        C  0.15389169  0.22717572  0.59624174    -0.13700
H509        H  0.15110274  0.27640473  0.57135019     0.12400
H510        H  0.16485264  0.27735260  0.68354167     0.12400
H511        H  0.16476064  0.21472761  0.68387392     0.12400
H512        H  0.15101453  0.21344590  0.57166846     0.12400
C513        C  0.24224688  0.36771253  0.65785186    -0.13700
C514        C  0.22594181  0.37007515  0.62670392     0.08400
C515        C  0.24066492  0.37425716  0.59482573    -0.13700
C516        C  0.27123464  0.37445506  0.59425104    -0.13700
C517        C  0.28733207  0.37034941  0.62553860     0.08400
C518        C  0.27252733  0.36775777  0.65732104    -0.13700
H519        H  0.23165450  0.36598980  0.68279894     0.12400
H520        H  0.22860242  0.37617131  0.57034157     0.12400
H521        H  0.28222898  0.37650592  0.56936428     0.12400
H522        H  0.28439880  0.36568430  0.68193444     0.12400
C523        C  0.12871275  0.36950640  0.76761797    -0.13700
C524        C  0.15374599  0.36112518  0.78735244     0.08400
C525        C  0.17952849  0.35331949  0.76963346    -0.13700
C526        C  0.18032301  0.35357714  0.73313478    -0.13700
C527        C  0.15559154  0.36245841  0.71316967     0.08400
C528        C  0.12962916  0.37020712  0.73094237    -0.13700
H529        H  0.10829980  0.37503625  0.78043142     0.12400
H530        H  0.19944059  0.34755535  0.78387876     0.12400
H531        H  0.20062965  0.34715026  0.72097543     0.12400
H532        H  0.10979443  0.37617567  0.71664315     0.12400
C533        C  0.23953850  0.33321688  0.86136924    -0.13700
C534        C  0.22370622  0.36185752  0.87312865     0.08400
C535        C  0.23949866  0.39093174  0.88468483    -0.13700
C536        C  0.27011346  0.39119709  0.88416096    -0.13700
C537        C  0.28577906  0.36240063  0.87205635     0.08400
C538        C  0.26985209  0.33347149  0.86087905    -0.13700
H539        H  0.22890572  0.31000629  0.85261994     0.12400
H540        H  0.22834762  0.41387857  0.89336813     0.12400
H541        H  0.28134210  0.41431768  0.89249074     0.12400
H542        H  0.28045010  0.31042603  0.85185347     0.12400
C543        C  0.18005691  0.13501612  0.77016673    -0.13700
C544        C  0.15432116  0.12710215  0.78780342     0.08400
C545        C  0.12905184  0.11971614  0.76800108    -0.13700
C546        C  0.12971509  0.12006529  0.73128911    -0.13700
C547        C  0.15563840  0.12794850  0.71360103     0.08400
C548        C  0.18055307  0.13596296  0.73368584    -0.13700
H549        H  0.20011190  0.14010610  0.78445981     0.12400
H550        H  0.10867067  0.11418211  0.78081883     0.12400
H551        H  0.10975927  0.11475237  0.71689354     0.12400
H552        H  0.20075264  0.14267947  0.72162411     0.12400
C553        C  0.24026456  0.09734080  0.88518086    -0.13700
C554        C  0.22431640  0.12636943  0.87418132     0.08400
C555        C  0.23997481  0.15527736  0.86310452    -0.13700
C556        C  0.27027603  0.15522024  0.86250116    -0.13700
C557        C  0.28634630  0.12628861  0.87303173     0.08400
C558        C  0.27086705  0.09731405  0.88464540    -0.13700
H559        H  0.22923801  0.07421450  0.89331359     0.12400
H560        H  0.22921781  0.17842656  0.85469227     0.12400
H561        H  0.28073186  0.17830308  0.85364943     0.12400
H562        H  0.28224030  0.07419097  0.89242998     0.12400
C563        C  0.17810427  0.22606346  0.88031614    -0.13700
C564        C  0.15202154  0.20767951  0.87665608     0.08400
C565        C  0.12556448  0.22565350  0.87404939    -0.13700
C566        C  0.12546866  0.26164537  0.87364578    -0.13700
C567        C  0.15183044  0.27989240  0.87578377     0.08400
C568        C  0.17802518  0.26183003  0.87978113    -0.13700
H569        H  0.19855311  0.21277783  0.88389198     0.12400
H570        H  0.10517192  0.21187111  0.87121414     0.12400
H571        H  0.10499097  0.27519416  0.87060761     0.12400
H572        H  0.19842385  0.27538120  0.88290617     0.12400
C573        C  0.10457047  0.07148513  0.92163052    -0.13700
C574        C  0.12247966  0.08796162  0.90613040    -0.15200
C575        C  0.10435455  0.41551654  0.57829214    -0.13700
C576        C  0.12259603  0.39890762  0.59353717    -0.15200
C577        C  0.39042429  0.09249572  0.59235130    -0.13700
C578        C  0.40841617  0.07595281  0.57684074    -0.15200
C579        C  0.10538088  0.07442409  0.57783983    -0.13700
C580        C  0.12348404  0.09134424  0.59322726    -0.15200
C581        C  0.38841121  0.39923822  0.90566356    -0.13700
C582        C  0.40645964  0.41581293  0.92166255    -0.15200
C583        C  0.40732470  0.07434205  0.92149802    -0.13700
C584        C  0.38910868  0.09012312  0.90529573    -0.15200
C585        C  0.12184295  0.39953601  0.90626036    -0.13700
C586        C  0.10402435  0.41646728  0.92161909    -0.15200
C587        C  0.40781375  0.41619824  0.57639819    -0.13700
C588        C  0.38988668  0.40039077  0.59251440    -0.15200
O589        O  0.45601189  0.92610348  0.43146471    -0.75700
O590        O  0.42232277  0.95752747  0.46154901    -0.54600
C591        C  0.42967335  0.93426276  0.43933813     0.78100
O592        O  0.05487144  0.92655511  0.06921639    -0.60300
O593        O  0.08894977  0.95638076  0.03847681    -0.53300
C594        C  0.08127604  0.93389178  0.06107505     0.70100
O595        O  0.45648360  0.92639807  0.06721606    -0.74800
O596        O  0.42249625  0.95778159  0.03703724    -0.55400
C597        C  0.43009008  0.93478811  0.05936963     0.76100
O598        O  0.05459289  0.92704150  0.43069719    -0.60000
O599        O  0.08872946  0.95750010  0.46193533    -0.53100
C600        C  0.08102155  0.93489472  0.43905442     0.72700
Zr601      Zr  0.50552594  0.94437626  0.44720742     2.54700
O602        O  0.50678260  0.88186780  0.44653091    -0.80500
O603        O  0.00499972  0.94775053  0.38350665    -0.94000
Zr604      Zr  0.50580709  0.94340550  0.05113023     2.64700
O605        O  0.50551577  0.88090006  0.04801657    -0.98900
O606        O  0.00459329  0.94401335  0.11555678    -0.81000
O607        O  0.47739487  0.94334254  0.99874572    -0.84300
O608        O  0.03365239  0.94324991  0.99982065    -2.19000
O609        O  0.05522291  0.56215419  0.43109863    -0.67700
O610        O  0.08915056  0.53120021  0.46184235    -0.52300
C611        C  0.08160486  0.55384383  0.43916000     0.71000
O612        O  0.45764497  0.56451221  0.06840506    -0.60600
O613        O  0.42337828  0.53428190  0.03712349    -0.52600
C614        C  0.43119285  0.55711614  0.05976094     0.72800
O615        O  0.05580809  0.56302152  0.06962504    -0.72000
O616        O  0.08939218  0.53256864  0.03839932    -0.50700
C617        C  0.08210284  0.55536220  0.06115390     0.74200
O618        O  0.45659970  0.56477246  0.43189538    -0.67400
O619        O  0.42274365  0.53270483  0.46059597    -0.54600
C620        C  0.43023794  0.55612118  0.43892289     0.72600
Zr621      Zr  0.00590053  0.54615922  0.44840675     2.77500
O622        O  0.50673276  0.60882194  0.44790287    -0.98100
O623        O  0.50420399  0.54355775  0.38420966    -0.78900
Zr624      Zr  0.00636791  0.54544976  0.05294468     2.70100
O625        O  0.00706629  0.60794468  0.05602443    -0.80200
O626        O  0.50592786  0.54077535  0.11668349    -0.99300
Zr627      Zr  0.45022737  0.49544562  0.99967697     2.21500
Zr628      Zr  0.06156074  0.99482442  0.50037271     2.11100
O629        O  0.03425977  0.54645651  0.50072136    -2.47900
O630        O  0.47805870  0.54697871  0.50012104    -0.80000
O631        O  0.03386038  0.99530011  0.44715081    -0.72200
O632        O  0.47801645  0.49474789  0.05291342    -2.33100
O633        O  0.47733785  0.49542589  0.44630297    -2.29300
O634        O  0.03449390  0.99458612  0.05369822    -0.73900
H635        H  0.04607278  0.92322946  0.99962221     0.78100
H636        H  0.46553502  0.49473379  0.07310040     0.79200
H637        H  0.04689068  0.56629954  0.50092656     0.81400
H638        H  0.46457589  0.49556005  0.42597694     0.79000
H639        H  0.49237392  0.96178242  0.12171069     0.42000
H640        H  0.02545058  0.53177773  0.12298856     0.41000
H641        H  0.50227914  0.61520349  0.03145577     0.40700
H642        H  0.02443699  0.61482084  0.46322499     0.38600
H643        H  0.01250758  0.52138707  0.37855405     0.41700
H644        H  0.48737548  0.96014837  0.37728411     0.36500
H645        H  0.49477365  0.87505712  0.46675338     0.42600
H646        H  0.02261736  0.87515435  0.03514672     0.39100
H647        H  0.51452070  0.61497307  0.42464748     0.44000
H648        H  0.99850624  0.92469620  0.37557684     0.42700
H649        H  0.51148030  0.87344695  0.07182763     0.42800
H650        H  0.00593142  0.56471218  0.12515291     0.43200
C651        C  0.14149122  0.61083695  0.38619684     0.86100
C652        C  0.13732915  0.60598496  0.34661332    -0.54100
C653        C  0.15433881  0.62715584  0.32708053     0.09000
C654        C  0.17380531  0.65118624  0.34942731     0.20000
C655        C  0.17434340  0.60578296  0.39295444    -0.54900
C656        C  0.19165201  0.62702097  0.37344060     0.09100
C657        C  0.13570049  0.64902932  0.39308217    -0.54400
C658        C  0.15283374  0.67021130  0.37390532     0.09700
H659        H  0.12263347  0.58700520  0.33522970     0.14200
H660        H  0.18658240  0.66913396  0.33335940     0.00000
H661        H  0.18283708  0.58724814  0.41160017     0.14500
H662        H  0.11980167  0.65847192  0.41170967     0.14300
C663        C  0.14073938  0.87739446  0.38578074     0.86100
C664        C  0.13513668  0.83924998  0.39257283    -0.54100
C665        C  0.15235567  0.81801675  0.37332552     0.09000
C666        C  0.17324401  0.83695989  0.34886686     0.20000
C667        C  0.17356429  0.88271281  0.39252654    -0.54900
C668        C  0.19099310  0.86144554  0.37295457     0.09100
C669        C  0.13650043  0.88188169  0.34621551    -0.54400
C670        C  0.15360926  0.86064935  0.32662013     0.09700
H671        H  0.11932171  0.82987322  0.41122927     0.14200
H672        H  0.18610376  0.81900267  0.33267792     0.00000
H673        H  0.18194740  0.90140109  0.41128680     0.14500
H674        H  0.12168819  0.90065123  0.33487010     0.14300
C675        C  0.14254854  0.87769566  0.11472064     0.86100
C676        C  0.13834776  0.88229829  0.15429988    -0.54100
C677        C  0.15667977  0.86271672  0.17448383     0.09000
C678        C  0.17782016  0.84086106  0.15250181     0.20000
C679        C  0.17471351  0.88575064  0.10828359    -0.54900
C680        C  0.19337209  0.86645822  0.12822134     0.09100
C681        C  0.13943569  0.83900117  0.10800523    -0.54400
C682        C  0.15791270  0.81951163  0.12802374     0.09700
H683        H  0.12219922  0.89962720  0.16513617     0.14200
H684        H  0.19306508  0.82467086  0.16790132     0.00000
H685        H  0.18201196  0.90517017  0.09001651     0.14500
H686        H  0.12348624  0.82805919  0.08989183     0.14300
C687        C  0.14345250  0.61229346  0.11468113     0.86100
C688        C  0.14007176  0.65093328  0.10831336    -0.54100
C689        C  0.15818403  0.67070800  0.12873507     0.09000
C690        C  0.17798902  0.64961651  0.15340658     0.20000
C691        C  0.17580558  0.60466220  0.10869470    -0.54900
C692        C  0.19411493  0.62425259  0.12909373     0.09100
C693        C  0.13888861  0.60764832  0.15409985    -0.54400
C694        C  0.15687058  0.62732464  0.17481914     0.09700
H695        H  0.12430566  0.66162883  0.08993395     0.14200
H696        H  0.19285827  0.66605664  0.16921281     0.00000
H697        H  0.18345975  0.58539355  0.09026176     0.14500
H698        H  0.12292306  0.58991639  0.16442682     0.14300
C699        C  0.36938792  0.61147630  0.38393240     0.86100
C700        C  0.37459550  0.64983900  0.39050943    -0.54100
C701        C  0.35690832  0.67051102  0.37099070     0.09000
C702        C  0.33596422  0.65080403  0.34641487     0.20000
C703        C  0.33676367  0.60573584  0.39042688    -0.54900
C704        C  0.31886622  0.62645376  0.37064801     0.09100
C705        C  0.37319791  0.60639528  0.34445618    -0.54400
C706        C  0.35576674  0.62717916  0.32450900     0.09700
H707        H  0.39058170  0.65977797  0.40919009     0.14200
H708        H  0.32226483  0.66777886  0.32994414     0.00000
H709        H  0.32883663  0.58743260  0.40944133     0.14500
H710        H  0.38894386  0.58865292  0.33341640     0.14300
C711        C  0.37064299  0.61368642  0.11314031     0.86100
C712        C  0.37529713  0.60914636  0.15268597    -0.54100
C713        C  0.35740536  0.62911270  0.17265988     0.09000
C714        C  0.33654107  0.65162902  0.15084653     0.20000
C715        C  0.33816133  0.60638296  0.10649159    -0.54900
C716        C  0.32015956  0.62625122  0.12654985     0.09100
C717        C  0.37433041  0.65221391  0.10668785    -0.54400
C718        C  0.35631351  0.67230565  0.12640436     0.09700
H719        H  0.39156209  0.59195687  0.16378858     0.14200
H720        H  0.32199063  0.66784382  0.16699965     0.00000
H721        H  0.33023309  0.58681130  0.08836026     0.14500
H722        H  0.38955404  0.66253410  0.08785902     0.14300
C723        C  0.36959666  0.87961833  0.11381648     0.86100
C724        C  0.37334849  0.84113914  0.10655299    -0.54100
C725        C  0.35521932  0.82083594  0.12566167     0.09000
C726        C  0.33520291  0.84125667  0.15025115     0.20000
C727        C  0.33719246  0.88698555  0.10694395    -0.54900
C728        C  0.31908559  0.86691003  0.12633349     0.09100
C729        C  0.37390975  0.88369873  0.15361860    -0.54400
C730        C  0.35583289  0.86342413  0.17290233     0.09700
H731        H  0.38883381  0.83100268  0.08780762     0.14200
H732        H  0.32044651  0.82496734  0.16586323     0.00000
H733        H  0.32936143  0.90672320  0.08915175     0.14500
H734        H  0.39006750  0.90073030  0.16536504     0.14300
C735        C  0.36884426  0.87752708  0.38477040     0.86100
C736        C  0.37251215  0.88256676  0.34529315    -0.54100
C737        C  0.35505695  0.86177371  0.32512163     0.09000
C738        C  0.33551414  0.83794291  0.34687796     0.20000
C739        C  0.33617797  0.88304840  0.39139821    -0.54900
C740        C  0.31833289  0.86219527  0.37144423     0.09100
C741        C  0.37422674  0.83919832  0.39093982    -0.54400
C742        C  0.35661185  0.81838440  0.37123355     0.09700
H743        H  0.38801614  0.90055259  0.33438655     0.14200
H744        H  0.32189718  0.82085815  0.33023782     0.00000
H745        H  0.32818404  0.90136633  0.41056948     0.14500
H746        H  0.39024429  0.82937791  0.40954282     0.14300
C747        C  0.36075286  0.89320306  0.23124004    -0.13700
C748        C  0.35582660  0.86293442  0.21188181     0.08400
C749        C  0.35047617  0.83224467  0.22997601    -0.13700
C750        C  0.35024149  0.83182406  0.26668195    -0.13700
C751        C  0.35521059  0.86212621  0.28606885     0.08400
C752        C  0.36040608  0.89282067  0.26788794    -0.13700
H753        H  0.36437376  0.91735997  0.21803878     0.12400
H754        H  0.34706365  0.80836741  0.21581069     0.12400
H755        H  0.34677909  0.80759612  0.27979684     0.12400
H756        H  0.36377095  0.91674533  0.28196228     0.12400
C757        C  0.32974011  0.72841280  0.12921602    -0.13700
C758        C  0.35590491  0.71033458  0.12459332     0.08400
C759        C  0.38168288  0.72882000  0.11888407    -0.13700
C760        C  0.38139436  0.76468865  0.11849787    -0.13700
C761        C  0.35531818  0.78278371  0.12382347     0.08300
C762        C  0.32944325  0.76427846  0.12878287    -0.13700
H763        H  0.30939727  0.71487955  0.13280780     0.12400
H764        H  0.40225155  0.71561082  0.11570880     0.12400
H765        H  0.40176349  0.77821857  0.11511908     0.12400
H766        H  0.30887718  0.77746125  0.13208664     0.12400
C767        C  0.35165342  0.65841994  0.26728576    -0.13700
C768        C  0.35664892  0.62769729  0.28557903     0.08400
C769        C  0.36258163  0.59757496  0.26644413    -0.13700
C770        C  0.36316877  0.59810103  0.22983406    -0.13700
C771        C  0.35773517  0.62872428  0.21156209     0.08400
C772        C  0.35210515  0.65890218  0.23065566    -0.13700
H773        H  0.34788811  0.68229303  0.28120230     0.12400
H774        H  0.36618730  0.57339422  0.27969811     0.12400
H775        H  0.36718420  0.57432500  0.21582719     0.12400
H776        H  0.34850759  0.68305742  0.21734017     0.12400
C777        C  0.38368282  0.76248383  0.37007819    -0.13700
C778        C  0.35737292  0.78054884  0.37348721     0.08400
C779        C  0.33148849  0.76229220  0.37851648    -0.13700
C780        C  0.33157754  0.72648707  0.37850701    -0.13700
C781        C  0.35754314  0.70833949  0.37344959     0.08400
C782        C  0.38376874  0.72650931  0.37005188    -0.13700
H783        H  0.40394910  0.77618658  0.36644161     0.12400
H784        H  0.31126061  0.77569476  0.38294627     0.12400
H785        H  0.31142122  0.71300071  0.38293319     0.12400
H786        H  0.40409566  0.71288558  0.36637525     0.12400
C787        C  0.24283042  0.62601838  0.15890194    -0.13700
C788        C  0.22644315  0.62191966  0.12793129     0.08400
C789        C  0.24123328  0.61698758  0.09616275    -0.13700
C790        C  0.27180951  0.61752680  0.09548938    -0.13700
C791        C  0.28796534  0.62308476  0.12656747     0.08400
C792        C  0.27312866  0.62671637  0.15827741    -0.13700
H793        H  0.23234732  0.62843347  0.18383385     0.12400
H794        H  0.22920099  0.61383940  0.07176899     0.12400
H795        H  0.28275026  0.61472042  0.07062275     0.12400
H796        H  0.28495860  0.62991073  0.18281740     0.12400
C797        C  0.15332125  0.76279468  0.09653590    -0.13700
C798        C  0.15779553  0.78139942  0.12781107     0.08400
C799        C  0.16222820  0.76340030  0.15924143    -0.13700
C800        C  0.16240460  0.72752943  0.15941856    -0.13700
C801        C  0.15808018  0.70885787  0.12817656     0.08400
C802        C  0.15349146  0.72683939  0.09671191    -0.13700
H803        H  0.15014830  0.77603344  0.07188025     0.12400
H804        H  0.16501632  0.77702547  0.18389229     0.12400
H805        H  0.16531224  0.71444308  0.18420043     0.12400
H806        H  0.15044041  0.71311524  0.07216630     0.12400
C807        C  0.24182426  0.86720393  0.15824637    -0.13700
C808        C  0.22556315  0.86968038  0.12706805     0.08400
C809        C  0.24034352  0.87396719  0.09525436    -0.13700
C810        C  0.27091789  0.87422180  0.09477945    -0.13700
C811        C  0.28696730  0.87003674  0.12609246     0.08400
C812        C  0.27210550  0.86722712  0.15781058    -0.13700
H813        H  0.23120410  0.86544814  0.18315340     0.12400
H814        H  0.22832556  0.87595309  0.07074611     0.12400
H815        H  0.28196328  0.87640569  0.06994039     0.12400
H816        H  0.28393105  0.86503499  0.18244602     0.12400
C817        C  0.12877163  0.86888054  0.26803880    -0.13700
C818        C  0.15393567  0.86096406  0.28770974     0.08400
C819        C  0.17968931  0.85310864  0.26996364    -0.13700
C820        C  0.18033947  0.85304736  0.23345357    -0.13700
C821        C  0.15551490  0.86178346  0.21355698     0.08400
C822        C  0.12955882  0.86933063  0.23138000    -0.13700
H823        H  0.10836024  0.87429043  0.28090478     0.12400
H824        H  0.19965587  0.84753997  0.28419104     0.12400
H825        H  0.20059404  0.84651289  0.22125409     0.12400
H826        H  0.10964348  0.87502028  0.21712409     0.12400
C827        C  0.23948112  0.83308325  0.36280760    -0.13700
C828        C  0.22366126  0.86189622  0.37413740     0.08400
C829        C  0.23945216  0.89103991  0.38548333    -0.13700
C830        C  0.27006778  0.89123937  0.38509019    -0.13700
C831        C  0.28571738  0.86230937  0.37331344     0.08400
C832        C  0.26978970  0.83327940  0.36243444    -0.13700
H833        H  0.22883903  0.80985137  0.35414861     0.12400
H834        H  0.22829314  0.91410550  0.39381958     0.12400
H835        H  0.28131565  0.91443413  0.39315877     0.12400
H836        H  0.28037257  0.81018965  0.35353603     0.12400
C837        C  0.18012299  0.63551471  0.27043736    -0.13700
C838        C  0.15464536  0.62663673  0.28814980     0.08400
C839        C  0.12966985  0.61786638  0.26840648    -0.13700
C840        C  0.13028196  0.61807566  0.23172644    -0.13700
C841        C  0.15585698  0.62721733  0.21394252     0.08400
C842        C  0.18055793  0.63631005  0.23395665    -0.13700
H843        H  0.20003718  0.64152477  0.28462936     0.12400
H844        H  0.10947034  0.61147945  0.28121281     0.12400
H845        H  0.11046285  0.61180725  0.21747796     0.12400
H846        H  0.20055319  0.64383394  0.22187847     0.12400
C847        C  0.24018199  0.59751296  0.38510996    -0.13700
C848        C  0.22429361  0.62666973  0.37436754     0.08400
C849        C  0.23996963  0.65549931  0.36314603    -0.13700
C850        C  0.27025420  0.65527145  0.36222376    -0.13700
C851        C  0.28628148  0.62626075  0.37262736     0.08400
C852        C  0.27077151  0.59732166  0.38427907    -0.13700
H853        H  0.22910636  0.57443610  0.39329757     0.12400
H854        H  0.22923085  0.67874333  0.35495144     0.12400
H855        H  0.28072818  0.67833173  0.35334612     0.12400
H856        H  0.28210392  0.57413099  0.39193557     0.12400
C857        C  0.17794341  0.72641559  0.38058671    -0.13700
C858        C  0.15189497  0.70804051  0.37652697     0.08400
C859        C  0.12544645  0.72600623  0.37368659    -0.13700
C860        C  0.12533096  0.76199841  0.37347687    -0.13700
C861        C  0.15166816  0.78023528  0.37608368     0.08400
C862        C  0.17783155  0.76217773  0.38035047    -0.13700
H863        H  0.19837895  0.71312467  0.38431147     0.12400
H864        H  0.10508449  0.71221657  0.37055687     0.12400
H865        H  0.10487629  0.77555355  0.37022768     0.12400
H866        H  0.19817812  0.77572644  0.38391218     0.12400
C867        C  0.10445414  0.57177869  0.42166986    -0.13700
C868        C  0.12243836  0.58841966  0.40648298    -0.15200
C869        C  0.10396783  0.91511301  0.07855969    -0.13700
C870        C  0.12212044  0.89851825  0.09401612    -0.15200
C871        C  0.39054694  0.59248596  0.09240125    -0.13700
C872        C  0.40858516  0.57596426  0.07695870    -0.15200
C873        C  0.10509629  0.57425951  0.07828009    -0.13700
C874        C  0.12330778  0.59114033  0.09357046    -0.15200
C875        C  0.38846911  0.89941711  0.40582323    -0.13700
C876        C  0.40665588  0.91584370  0.42168563    -0.15200
C877        C  0.40732984  0.57399315  0.42084597    -0.13700
C878        C  0.38905995  0.58988551  0.40482777    -0.15200
C879        C  0.12165037  0.89982447  0.40622248    -0.13700
C880        C  0.10373228  0.91656141  0.42157901    -0.15200
C881        C  0.40736966  0.91699282  0.07732229    -0.13700
C882        C  0.38951161  0.90093166  0.09339129    -0.15200
O883        O  0.45571715  0.92625621  0.93070436    -0.75700
O884        O  0.42211463  0.95767701  0.96091832    -0.54600
C885        C  0.42938855  0.93443866  0.93861384     0.78100
O886        O  0.05540642  0.92690406  0.56920661    -0.60300
O887        O  0.08921567  0.95678732  0.53813599    -0.53300
C888        C  0.08174024  0.93431694  0.56086096     0.70100
O889        O  0.45672245  0.92581816  0.56680975    -0.74800
O890        O  0.42282669  0.95760635  0.53691814    -0.55400
C891        C  0.43036877  0.93429404  0.55891753     0.76100
O892        O  0.05471674  0.92794553  0.93004592    -0.60000
O893        O  0.08889653  0.95707208  0.96255201    -0.53100
C894        C  0.08116905  0.93513879  0.93895499     0.72700
Zr895      Zr  0.50524239  0.94439660  0.94666047     2.54700
O896        O  0.50531195  0.88188806  0.94483349    -0.80500
O897        O  0.00522424  0.94752656  0.88356112    -0.94000
Zr898      Zr  0.50594928  0.94359647  0.55148301     2.64700
O899        O  0.50574817  0.88108784  0.54788378    -0.98900
O900        O  0.00545475  0.94386979  0.61560813    -0.81000
O901        O  0.47755861  0.94357327  0.49913084    -0.84300
O902        O  0.03376548  0.94314213  0.49963046    -2.19000
O903        O  0.05482237  0.56154385  0.93040185    -0.67700
O904        O  0.08875375  0.53120778  0.96178232    -0.52300
C905        C  0.08118178  0.55340693  0.93866590     0.71000
O906        O  0.45751779  0.56466553  0.56781734    -0.60600
O907        O  0.42326258  0.53410685  0.53682395    -0.52600
C908        C  0.43106329  0.55706804  0.55935190     0.72800
O909        O  0.05608942  0.56256668  0.56953502    -0.72000
O910        O  0.08970361  0.53249257  0.53798109    -0.50700
C911        C  0.08238179  0.55508153  0.56090797     0.74200
O912        O  0.45674162  0.56483823  0.93203868    -0.67400
O913        O  0.42293155  0.53360526  0.96175530    -0.54600
C914        C  0.43039829  0.55663348  0.93963547     0.72600
Zr915      Zr  0.00564629  0.54636949  0.94858451     2.77500
O916        O  0.50650790  0.60912536  0.95225324    -0.98100
O917        O  0.50472511  0.54603434  0.88486678    -0.78900
Zr918      Zr  0.00656610  0.54539599  0.55281543     2.70100
O919        O  0.00766473  0.60789726  0.55383834    -0.80200
O920        O  0.50632364  0.53885462  0.61600646    -0.99300
Zr921      Zr  0.45016937  0.49538009  0.49923479     2.21500
Zr922      Zr  0.06165339  0.99476994  0.00079259     2.11100
O923        O  0.03409536  0.54658611  0.00084930    -2.47900
O924        O  0.47809602  0.54699628  0.00074583    -0.80000
O925        O  0.03410090  0.99546842  0.94753852    -0.72200
O926        O  0.47777019  0.49494335  0.55254363    -2.33100
O927        O  0.47748378  0.49568914  0.94682602    -2.29300
O928        O  0.03471484  0.99465546  0.55346811    -0.73900
H929        H  0.04626686  0.92319301  0.49946535     0.78100
H930        H  0.46516981  0.49502962  0.57261979     0.79200
H931        H  0.04675886  0.56640065  0.00101947     0.81400
H932        H  0.46471146  0.49594018  0.92651289     0.79000
H933        H  0.51967132  0.95896644  0.62301678     0.42000
H934        H  0.02366148  0.52771361  0.62258252     0.41000
H935        H  0.49825245  0.61575045  0.53440283     0.40700
H936        H  0.02625763  0.61459963  0.96175385     0.38600
H937        H  0.01195713  0.52328643  0.87811976     0.41700
H938        H  0.48637528  0.96185683  0.87732343     0.36500
H939        H  0.49867707  0.87500851  0.96839796     0.42600
H940        H  0.02442436  0.87529423  0.53616840     0.39100
H941        H  0.51015149  0.61669272  0.92794266     0.44000
H942        H  0.00123984  0.92365298  0.87579649     0.42700
H943        H  0.50887533  0.87344594  0.57236861     0.42800
H944        H  0.01179673  0.56540818  0.62464607     0.43200
C945        C  0.14110361  0.61035035  0.88592996     0.86100
C946        C  0.13706448  0.60575377  0.84630599    -0.54100
C947        C  0.15415729  0.62701820  0.82700442     0.09000
C948        C  0.17355642  0.65089966  0.84960386     0.20000
C949        C  0.17393587  0.60524673  0.89285085    -0.54900
C950        C  0.19134694  0.62659758  0.87358809     0.09100
C951        C  0.13527512  0.64849481  0.89305745    -0.54400
C952        C  0.15248154  0.66980000  0.87410807     0.09700
H953        H  0.12239518  0.58686341  0.83470516     0.14200
H954        H  0.18635872  0.66889291  0.83361702     0.00000
H955        H  0.18232765  0.58660229  0.91144543     0.14500
H956        H  0.11928911  0.65780582  0.91164869     0.14300
C957        C  0.14051696  0.87713595  0.88521442     0.86100
C958        C  0.13498414  0.83898611  0.89214341    -0.54100
C959        C  0.15209781  0.81768730  0.87281583     0.09000
C960        C  0.17285862  0.83659185  0.84814535     0.20000
C961        C  0.17340060  0.88249248  0.89162911    -0.54900
C962        C  0.19073644  0.86120749  0.87193587     0.09100
C963        C  0.13608210  0.88149590  0.84565010    -0.54400
C964        C  0.15316293  0.86027081  0.82598648     0.09700
H965        H  0.11927550  0.82964875  0.91094702     0.14200
H966        H  0.18562131  0.81857666  0.83191378     0.00000
H967        H  0.18189608  0.90131409  0.91017397     0.14500
H968        H  0.12128621  0.90031351  0.83436280     0.14300
C969        C  0.14279851  0.87742121  0.61413579     0.86100
C970        C  0.13858388  0.88214795  0.65367640    -0.54100
C971        C  0.15680607  0.86252008  0.67394287     0.09000
C972        C  0.17788470  0.84047282  0.65208496     0.20000
C973        C  0.17498443  0.88527863  0.60776353    -0.54900
C974        C  0.19354199  0.86595826  0.62779154     0.09100
C975        C  0.13953685  0.83869365  0.60751944    -0.54400
C976        C  0.15792106  0.81913528  0.62763846     0.09700
H977        H  0.12253113  0.89964996  0.66442872     0.14200
H978        H  0.19306761  0.82427390  0.66756570     0.00000
H979        H  0.18237537  0.90467096  0.58952106     0.14500
H980        H  0.12356406  0.82779626  0.58941100     0.14300
C981        C  0.14363926  0.61180954  0.61460735     0.86100
C982        C  0.14000273  0.65044189  0.60849023    -0.54100
C983        C  0.15816357  0.67024711  0.62880099     0.09000
C984        C  0.17824012  0.64916483  0.65320123     0.20000
C985        C  0.17596061  0.60443596  0.60820791    -0.54900
C986        C  0.19430333  0.62399861  0.62856453     0.09100
C987        C  0.13937715  0.60690678  0.65405777    -0.54400
C988        C  0.15736679  0.62665001  0.67470564     0.09700
H989        H  0.12407089  0.66111234  0.59030015     0.14200
H990        H  0.19311408  0.66558955  0.66904271     0.00000
H991        H  0.18357225  0.58530360  0.58959781     0.14500
H992        H  0.12351607  0.58909527  0.66448470     0.14300
C993        C  0.36934964  0.61146768  0.88438791     0.86100
C994        C  0.37445240  0.64988836  0.89069621    -0.54100
C995        C  0.35667986  0.67034332  0.87105711     0.09000
C996        C  0.33573505  0.65040068  0.84670064     0.20000
C997        C  0.33674171  0.60562900  0.89102048    -0.54900
C998        C  0.31872943  0.62615854  0.87117616     0.09100
C999        C  0.37311196  0.60616829  0.84489132    -0.54400
C1000       C  0.35558460  0.62677779  0.82484286     0.09700
H1001       H  0.39047807  0.66002463  0.90922090     0.14200
H1002       H  0.32196794  0.66722694  0.83016104     0.00000
H1003       H  0.32891104  0.58742760  0.91019575     0.14500
H1004       H  0.38892370  0.58847077  0.83391355     0.14300
C1005       C  0.37072554  0.61356220  0.61316766     0.86100
C1006       C  0.37510544  0.60878865  0.65275727    -0.54100
C1007       C  0.35720955  0.62880851  0.67271274     0.09000
C1008       C  0.33660091  0.65157586  0.65076597     0.20000
C1009       C  0.33827013  0.60654029  0.60617879    -0.54900
C1010       C  0.32025500  0.62641362  0.62616980     0.09100
C1011       C  0.37466681  0.65208807  0.60693684    -0.54400
C1012       C  0.35662472  0.67222663  0.62656418     0.09700
H1013       H  0.39121612  0.59142376  0.66389008     0.14200
H1014       H  0.32200742  0.66781591  0.66683652     0.00000
H1015       H  0.33035318  0.58708501  0.58790706     0.14500
H1016       H  0.38999963  0.66236880  0.58821227     0.14300
C1017       C  0.36964635  0.87944456  0.61308158     0.86100
C1018       C  0.37339513  0.84095659  0.60598478    -0.54100
C1019       C  0.35533617  0.82073888  0.62523757     0.09000
C1020       C  0.33536960  0.84124781  0.64980929     0.20000
C1021       C  0.33722943  0.88678620  0.60627727    -0.54900
C1022       C  0.31918580  0.86680197  0.62586452     0.09100
C1023       C  0.37404009  0.88376767  0.65284435    -0.54400
C1024       C  0.35602131  0.86356832  0.67225397     0.09700
H1025       H  0.38883182  0.83074017  0.58722387     0.14200
H1026       H  0.32068306  0.82499089  0.66556163     0.00000
H1027       H  0.32935193  0.90643728  0.58841354     0.14500
H1028       H  0.39017707  0.90089775  0.66448583     0.14300
C1029       C  0.36862279  0.87733515  0.88406711     0.86100
C1030       C  0.37244142  0.88259120  0.84463629    -0.54100
C1031       C  0.35509492  0.86187081  0.82427343     0.09000
C1032       C  0.33546628  0.83791347  0.84571544     0.20000
C1033       C  0.33589618  0.88276543  0.89049254    -0.54900
C1034       C  0.31815106  0.86205617  0.87023166     0.09100
C1035       C  0.37399791  0.83894731  0.89002554    -0.54400
C1036       C  0.35646946  0.81823119  0.87006749     0.09700
H1037       H  0.38794093  0.90067096  0.83387519     0.14200
H1038       H  0.32193325  0.82091791  0.82886363     0.00000
H1039       H  0.32777556  0.90100054  0.90966630     0.14500
H1040       H  0.38993602  0.82901756  0.90866460     0.14300
C1041       C  0.36036603  0.89361116  0.73051149    -0.13700
C1042       C  0.35609253  0.86318591  0.71118445     0.08400
C1043       C  0.35139567  0.83234627  0.72924044    -0.13700
C1044       C  0.35113150  0.83190353  0.76591260    -0.13700
C1045       C  0.35540697  0.86233528  0.78528386     0.08400
C1046       C  0.35998238  0.89320346  0.76716817    -0.13700
H1047       H  0.36349646  0.91785068  0.71727314     0.12400
H1048       H  0.34848529  0.80839339  0.71504686     0.12400
H1049       H  0.34815317  0.80758468  0.77903792     0.12400
H1050       H  0.36282771  0.91718486  0.78131198     0.12400
C1051       C  0.32998219  0.72830084  0.62893983    -0.13700
C1052       C  0.35619895  0.71025544  0.62458962     0.08400
C1053       C  0.38196745  0.72877331  0.61889539    -0.13700
C1054       C  0.38161635  0.76464135  0.61835255    -0.13700
C1055       C  0.35549354  0.78269403  0.62351994     0.08300
C1056       C  0.32962975  0.76416269  0.62838921    -0.13700
H1057       H  0.30964126  0.71474125  0.63243728     0.12400
H1058       H  0.40256814  0.71559949  0.61585875     0.12400
H1059       H  0.40197057  0.77821229  0.61499950     0.12400
H1060       H  0.30903901  0.77733047  0.63155286     0.12400
C1061       C  0.35133579  0.65798722  0.76752143    -0.13700
C1062       C  0.35647181  0.62729740  0.78584780     0.08400
C1063       C  0.36245128  0.59721551  0.76666253    -0.13700
C1064       C  0.36292077  0.59773878  0.73000965    -0.13700
C1065       C  0.35739354  0.62834060  0.71169907     0.08400
C1066       C  0.35169936  0.65847547  0.73086015    -0.13700
H1067       H  0.34752841  0.68185100  0.78143811     0.12400
H1068       H  0.36618312  0.57306144  0.77991877     0.12400
H1069       H  0.36697929  0.57397565  0.71600305     0.12400
H1070       H  0.34802288  0.68263094  0.71757891     0.12400
C1071       C  0.38345386  0.76226061  0.86870322    -0.13700
C1072       C  0.35717171  0.78037980  0.87214483     0.08400
C1073       C  0.33127684  0.76218874  0.87734294    -0.13700
C1074       C  0.33137342  0.72639128  0.87783327    -0.13700
C1075       C  0.35733419  0.70818197  0.87299122     0.08400
C1076       C  0.38353638  0.72629025  0.86910933    -0.13700
H1077       H  0.40371062  0.77591735  0.86484070     0.12400
H1078       H  0.31105005  0.77564926  0.88164092     0.12400
H1079       H  0.31122952  0.71296265  0.88250602     0.12400
H1080       H  0.40384277  0.71261110  0.86546988     0.12400
C1081       C  0.24295081  0.62550365  0.65829962    -0.13700
C1082       C  0.22660547  0.62164977  0.62728999     0.08400
C1083       C  0.24141326  0.61698399  0.59548626    -0.13700
C1084       C  0.27199347  0.61771692  0.59485802    -0.13700
C1085       C  0.28808428  0.62320260  0.62601149     0.08400
C1086       C  0.27322145  0.62644605  0.65772023    -0.13700
H1087       H  0.23244328  0.62759032  0.68323288     0.12400
H1088       H  0.22939989  0.61392680  0.57106509     0.12400
H1089       H  0.28297990  0.61511507  0.56999726     0.12400
H1090       H  0.28501348  0.62949998  0.68230332     0.12400
C1091       C  0.15316659  0.76226424  0.59637052    -0.13700
C1092       C  0.15768585  0.78098059  0.62757168     0.08400
C1093       C  0.16211568  0.76304516  0.65906023    -0.13700
C1094       C  0.16228818  0.72715880  0.65935498    -0.13700
C1095       C  0.15795664  0.70840050  0.62817952     0.08400
C1096       C  0.15331778  0.72630070  0.59666902    -0.13700
H1097       H  0.14999679  0.77542099  0.57166906     0.12400
H1098       H  0.16494343  0.77673612  0.68366505     0.12400
H1099       H  0.16524651  0.71411854  0.68415694     0.12400
H1100       H  0.15025111  0.71250257  0.57216744     0.12400
C1101       C  0.24196608  0.86686818  0.65794798    -0.13700
C1102       C  0.22571296  0.86922536  0.62674801     0.08400
C1103       C  0.24046926  0.87358373  0.59494197    -0.13700
C1104       C  0.27101842  0.87398455  0.59445265    -0.13700
C1105       C  0.28708262  0.86989401  0.62574767     0.08400
C1106       C  0.27225288  0.86705779  0.65749901    -0.13700
H1107       H  0.23134377  0.86507095  0.68285440     0.12400
H1108       H  0.22844895  0.87549975  0.57043050     0.12400
H1109       H  0.28203937  0.87618078  0.56960032     0.12400
H1110       H  0.28410252  0.86494062  0.68212642     0.12400
C1111       C  0.12869940  0.86913524  0.76731466    -0.13700
C1112       C  0.15371057  0.86088299  0.78709677     0.08400
C1113       C  0.17952485  0.85295420  0.76948375    -0.13700
C1114       C  0.18031442  0.85290903  0.73298662    -0.13700
C1115       C  0.15558599  0.86177709  0.71299001     0.08400
C1116       C  0.12963106  0.86961128  0.73068093    -0.13700
H1117       H  0.10826918  0.87470356  0.78006459     0.12400
H1118       H  0.19941908  0.84724338  0.78379654     0.12400
H1119       H  0.20057727  0.84622632  0.72087907     0.12400
H1120       H  0.10979357  0.87546675  0.71634289     0.12400
C1121       C  0.23924936  0.83311697  0.86112416    -0.13700
C1122       C  0.22342359  0.86189817  0.87254510     0.08400
C1123       C  0.23921826  0.89116575  0.88355750    -0.13700
C1124       C  0.26984355  0.89136944  0.88314115    -0.13700
C1125       C  0.28550276  0.86235186  0.87160238     0.08400
C1126       C  0.26956781  0.83335644  0.86062756    -0.13700
H1127       H  0.22859886  0.80979528  0.85271295     0.12400
H1128       H  0.22805036  0.91424939  0.89183048     0.12400
H1129       H  0.28110953  0.91457476  0.89114886     0.12400
H1130       H  0.28017251  0.81024467  0.85180231     0.12400
C1131       C  0.18037298  0.63480134  0.77051553    -0.13700
C1132       C  0.15464543  0.62660628  0.78806627     0.08400
C1133       C  0.12961184  0.61844731  0.76816255    -0.13700
C1134       C  0.13043095  0.61843291  0.73148579    -0.13700
C1135       C  0.15627122  0.62673667  0.71384262     0.08400
C1136       C  0.18102930  0.63534994  0.73399599    -0.13700
H1137       H  0.20027646  0.64045219  0.78489766     0.12400
H1138       H  0.10923225  0.61265382  0.78085851     0.12400
H1139       H  0.11057873  0.61263700  0.71708749     0.12400
H1140       H  0.20118798  0.64234094  0.72196933     0.12400
C1141       C  0.23996282  0.59732145  0.88602829    -0.13700
C1142       C  0.22403452  0.62629552  0.87478834     0.08400
C1143       C  0.23974284  0.65503500  0.86338735    -0.13700
C1144       C  0.27004197  0.65484609  0.86260578    -0.13700
C1145       C  0.28610902  0.62596979  0.87332374     0.08400
C1146       C  0.27058488  0.59717956  0.88535223    -0.13700
H1147       H  0.22890863  0.57432605  0.89447712     0.12400
H1148       H  0.22902453  0.67820186  0.85493060     0.12400
H1149       H  0.28049574  0.67784217  0.85353887     0.12400
H1150       H  0.28192949  0.57411523  0.89337593     0.12400
C1151       C  0.17758660  0.72601193  0.88070673    -0.13700
C1152       C  0.15151340  0.70764043  0.87686270     0.08400
C1153       C  0.12508107  0.72564334  0.87395753    -0.13700
C1154       C  0.12502399  0.76164591  0.87340262    -0.13700
C1155       C  0.15139487  0.77987334  0.87571493     0.08400
C1156       C  0.17754378  0.76178194  0.88003170    -0.13700
H1157       H  0.19801695  0.71269538  0.88442282     0.12400
H1158       H  0.10469378  0.71187628  0.87096538     0.12400
H1159       H  0.10457999  0.77521342  0.87010758     0.12400
H1160       H  0.19794297  0.77532069  0.88324702     0.12400
C1161       C  0.10399377  0.57113749  0.92100193    -0.13700
C1162       C  0.12199834  0.58779856  0.90592368    -0.15200
C1163       C  0.10453200  0.91547332  0.57812876    -0.13700
C1164       C  0.12254072  0.89850088  0.59342206    -0.15200
C1165       C  0.39054996  0.59231430  0.59236614    -0.13700
C1166       C  0.40846194  0.57580616  0.57669603    -0.15200
C1167       C  0.10532426  0.57391179  0.57811270    -0.13700
C1168       C  0.12349460  0.59070696  0.59352077    -0.15200
C1169       C  0.38817156  0.89926446  0.90529078    -0.13700
C1170       C  0.40631299  0.91592287  0.92104523    -0.15200
C1171       C  0.40745804  0.57446825  0.92159189    -0.13700
C1172       C  0.38913461  0.59015255  0.90544394    -0.15200
C1173       C  0.12153751  0.89971760  0.90578869    -0.13700
C1174       C  0.10382123  0.91669857  0.92130702    -0.15200
C1175       C  0.40758797  0.91636953  0.57653260    -0.13700
C1176       C  0.38957241  0.90052262  0.59251534    -0.15200
O1177       O  0.95580861  0.42621510  0.43137330    -0.75700
O1178       O  0.92209899  0.45788778  0.46116169    -0.54600
C1179       C  0.92946751  0.43455214  0.43904835     0.78100
O1180       O  0.55524541  0.42664550  0.06897092    -0.60300
O1181       O  0.58913906  0.45663185  0.03810531    -0.53300
C1182       C  0.58159791  0.43415223  0.06078437     0.70100
O1183       O  0.95659618  0.42641784  0.06764259    -0.74800
O1184       O  0.92263869  0.45750450  0.03708096    -0.55400
C1185       C  0.93022163  0.43467086  0.05958333     0.76100
O1186       O  0.55469348  0.42635591  0.43092431    -0.60000
O1187       O  0.58882352  0.45723144  0.46173780    -0.53100
C1188       C  0.58113263  0.43440079  0.43908463     0.72700
Zr1189     Zr  0.00547019  0.44403742  0.44709059     2.54700
O1190       O  0.00629059  0.38147689  0.44692089    -0.80500
O1191       O  0.50558588  0.44998201  0.38325194    -0.94000
Zr1192     Zr  0.00580385  0.44348059  0.05137832     2.64700
O1193       O  0.00520837  0.38092463  0.04943654    -0.98900
O1194       O  0.50539843  0.44325471  0.11517407    -0.81000
O1195       O  0.97743489  0.44325162  0.99896438    -0.84300
O1196       O  0.53379672  0.44303607  0.99936031    -2.19000
O1197       O  0.55529417  0.06202447  0.43104910    -0.67700
O1198       O  0.58916342  0.03141759  0.46223854    -0.52300
C1199       C  0.58165480  0.05382609  0.43930083     0.71000
O1200       O  0.95751819  0.06435952  0.06886324    -0.60600
O1201       O  0.92329620  0.03472676  0.03686368    -0.52600
C1202       C  0.93109935  0.05717191  0.05990851     0.72800
O1203       O  0.55586841  0.06352755  0.06879306    -0.72000
O1204       O  0.58947257  0.03259887  0.03806912    -0.50700
C1205       C  0.58216190  0.05568848  0.06050326     0.74200
O1206       O  0.95654830  0.06482421  0.43206228    -0.67400
O1207       O  0.92278788  0.03296865  0.46116907    -0.54600
C1208       C  0.93022151  0.05628816  0.43932899     0.72600
Zr1209     Zr  0.50589653  0.04646701  0.44837506     2.77500
O1210       O  0.00683312  0.10904555  0.45019619    -0.98100
O1211       O  0.00412541  0.04565027  0.38460775    -0.78900
Zr1212     Zr  0.50651119  0.04531033  0.05269617     2.70100
O1213       O  0.50674750  0.10776113  0.05654233    -0.80200
O1214       O  0.00666682  0.04148380  0.11671897    -0.99300
Zr1215     Zr  0.95006729  0.99572565  0.99954785     2.21500
Zr1216     Zr  0.56161067  0.49454793  0.50015402     2.11100
O1217       O  0.53421267  0.04663519  0.50069760    -2.47900
O1218       O  0.97796614  0.04700684  0.50057298    -0.80000
O1219       O  0.53401434  0.49508685  0.44686515    -0.72200
O1220       O  0.97770587  0.99517868  0.05291099    -2.33100
O1221       O  0.97731120  0.99553928  0.44675146    -2.29300
O1222       O  0.53469662  0.49427508  0.05330280    -0.73900
H1223       H  0.54628574  0.42307505  0.99917124     0.78100
H1224       H  0.96515694  0.99520962  0.07303849     0.79200
H1225       H  0.54688889  0.06643527  0.50090290     0.81400
H1226       H  0.96451898  0.99567569  0.42645441     0.79000
H1227       H  0.01732542  0.46507007  0.12170552     0.42000
H1228       H  0.52579562  0.02841720  0.12184649     0.41000
H1229       H  0.00785603  0.11518710  0.02975599     0.40700
H1230       H  0.52433665  0.11478765  0.46514411     0.38600
H1231       H  0.51840450  0.02639564  0.37819690     0.41700
H1232       H  0.98707712  0.45754559  0.37672306     0.36500
H1233       H  0.99406433  0.37490971  0.46703770     0.42600
H1234       H  0.52232548  0.37482327  0.03344277     0.39100
H1235       H  0.01373302  0.11581777  0.42670821     0.44000
H1236       H  0.50512797  0.42602999  0.37437408     0.42700
H1237       H  0.00869041  0.37388813  0.07405011     0.42800
H1238       H  0.50817564  0.06272235  0.12536351     0.43200
C1239       C  0.64135596  0.11056341  0.38580420     0.86100
C1240       C  0.63712490  0.10577290  0.34620135    -0.54100
C1241       C  0.65415690  0.12694718  0.32668472     0.09000
C1242       C  0.67366500  0.15091648  0.34904184     0.20000
C1243       C  0.67421491  0.10545158  0.39248996    -0.54900
C1244       C  0.69153576  0.12666203  0.37297377     0.09100
C1245       C  0.63559234  0.14875987  0.39274368    -0.54400
C1246       C  0.65270685  0.16995988  0.37356296     0.09700
H1247       H  0.62238701  0.08685357  0.33478464     0.14200
H1248       H  0.68643335  0.16885474  0.33295023     0.00000
H1249       H  0.68270621  0.08687637  0.41109533     0.14500
H1250       H  0.61971636  0.15819031  0.41140723     0.14300
C1251       C  0.64104883  0.37726509  0.38563752     0.86100
C1252       C  0.63538670  0.33912573  0.39234869    -0.54100
C1253       C  0.65255875  0.31786532  0.37308096     0.09000
C1254       C  0.67349845  0.33681602  0.34864592     0.20000
C1255       C  0.67387837  0.38249124  0.39242396    -0.54900
C1256       C  0.69128455  0.36122448  0.37281294     0.09100
C1257       C  0.63684371  0.38184871  0.34607283    -0.54400
C1258       C  0.65390192  0.36060874  0.32642250     0.09700
H1259       H  0.61955538  0.32976621  0.41099420     0.14200
H1260       H  0.68633846  0.31887620  0.33240774     0.00000
H1261       H  0.68227658  0.40112602  0.41123046     0.14500
H1262       H  0.62205977  0.40066584  0.33475874     0.14300
C1263       C  0.64274792  0.37771518  0.11434686     0.86100
C1264       C  0.63827042  0.38203053  0.15392613    -0.54100
C1265       C  0.65657660  0.36245840  0.17415727     0.09000
C1266       C  0.67788926  0.34078583  0.15221469     0.20000
C1267       C  0.67492357  0.38594123  0.10827267    -0.54900
C1268       C  0.69350710  0.36659397  0.12823798     0.09100
C1269       C  0.63979727  0.33903436  0.10732285    -0.54400
C1270       C  0.65816918  0.31947966  0.12743571     0.09700
H1271       H  0.62203542  0.39926393  0.16473320     0.14200
H1272       H  0.69310985  0.32458159  0.16763913     0.00000
H1273       H  0.68229472  0.40546723  0.09016303     0.14500
H1274       H  0.62398197  0.32814318  0.08900635     0.14300
C1275       C  0.64353356  0.11226021  0.11426844     0.86100
C1276       C  0.64011209  0.15089073  0.10801622    -0.54100
C1277       C  0.65824426  0.17063181  0.12841215     0.09000
C1278       C  0.67811633  0.14950904  0.15300265     0.20000
C1279       C  0.67587202  0.10465297  0.10815667    -0.54900
C1280       C  0.69421616  0.12417136  0.12858169     0.09100
C1281       C  0.63904227  0.10750105  0.15369784    -0.54400
C1282       C  0.65703064  0.12717619  0.17441699     0.09700
H1283       H  0.62430330  0.16162009  0.08970801     0.14200
H1284       H  0.69297119  0.16593563  0.16886204     0.00000
H1285       H  0.68348692  0.08542362  0.08965482     0.14500
H1286       H  0.62307396  0.08978236  0.16404964     0.14300
C1287       C  0.86944520  0.11162629  0.38416385     0.86100
C1288       C  0.87455362  0.15000006  0.39072014    -0.54100
C1289       C  0.85684225  0.17057699  0.37113994     0.09000
C1290       C  0.83594197  0.15080159  0.34658924     0.20000
C1291       C  0.83681633  0.10576588  0.39061535    -0.54900
C1292       C  0.81887325  0.12638959  0.37079091     0.09100
C1293       C  0.87330699  0.10656208  0.34466184    -0.54400
C1294       C  0.85580255  0.12727300  0.32469870     0.09700
H1295       H  0.89053446  0.16002203  0.40936470     0.14200
H1296       H  0.82222914  0.16773101  0.33009638     0.00000
H1297       H  0.82891622  0.08741704  0.40960048     0.14500
H1298       H  0.88909440  0.08887220  0.33362079     0.14300
C1299       C  0.87072726  0.11358080  0.11338563     0.86100
C1300       C  0.87513091  0.10906660  0.15296948    -0.54100
C1301       C  0.85720254  0.12916827  0.17276518     0.09000
C1302       C  0.83659686  0.15180017  0.15069971     0.20000
C1303       C  0.83827665  0.10646899  0.10644892    -0.54900
C1304       C  0.82024643  0.12645797  0.12630550     0.09100
C1305       C  0.87468481  0.15203446  0.10687471    -0.54400
C1306       C  0.85665414  0.17227589  0.12636701     0.09700
H1307       H  0.89124715  0.09177737  0.16422003     0.14200
H1308       H  0.82201114  0.16814283  0.16667528     0.00000
H1309       H  0.83038058  0.08685792  0.08834090     0.14500
H1310       H  0.89005514  0.16220143  0.08812657     0.14300
C1311       C  0.86964017  0.37946247  0.11361927     0.86100
C1312       C  0.87348282  0.34104564  0.10620066    -0.54100
C1313       C  0.85542491  0.32064198  0.12525893     0.09000
C1314       C  0.83535329  0.34088785  0.14995270     0.20000
C1315       C  0.83722372  0.38677650  0.10680699    -0.54900
C1316       C  0.81917504  0.36660066  0.12616669     0.09100
C1317       C  0.87398130  0.38341572  0.15340613    -0.54400
C1318       C  0.85597004  0.36302196  0.17262716     0.09700
H1319       H  0.88899646  0.33100751  0.08743222     0.14200
H1320       H  0.82063160  0.32451754  0.16554292     0.00000
H1321       H  0.82933861  0.40657485  0.08911857     0.14500
H1322       H  0.89011587  0.40045071  0.16519609     0.14300
C1323       C  0.86906753  0.37750034  0.38432034     0.86100
C1324       C  0.87289544  0.38232546  0.34484359    -0.54100
C1325       C  0.85549162  0.36143782  0.32471718     0.09000
C1326       C  0.83583864  0.33777755  0.34647616     0.20000
C1327       C  0.83640565  0.38308551  0.39076242    -0.54900
C1328       C  0.81860475  0.36215575  0.37085834     0.09100
C1329       C  0.87440505  0.33919846  0.39072976    -0.54400
C1330       C  0.85683023  0.31833190  0.37101991     0.09700
H1331       H  0.88843297  0.40025256  0.33390186     0.14200
H1332       H  0.82228560  0.32063011  0.32982576     0.00000
H1333       H  0.82839451  0.40146431  0.40985891     0.14500
H1334       H  0.89035081  0.32944204  0.40945709     0.14300
C1335       C  0.86073622  0.39278414  0.23087956    -0.13700
C1336       C  0.85604349  0.36245223  0.21156598     0.08400
C1337       C  0.85105742  0.33167509  0.22965774    -0.13700
C1338       C  0.85095631  0.33126031  0.26637093    -0.13700
C1339       C  0.85568259  0.36165746  0.28569842     0.08400
C1340       C  0.86052438  0.39240518  0.26750373    -0.13700
H1341       H  0.86406219  0.41699007  0.21765555     0.12400
H1342       H  0.84780437  0.30777136  0.21547953     0.12400
H1343       H  0.84773576  0.30701102  0.27954452     0.12400
H1344       H  0.86367958  0.41637808  0.28156101     0.12400
C1345       C  0.83009767  0.22829370  0.12838099    -0.13700
C1346       C  0.85632366  0.21025900  0.12425015     0.08400
C1347       C  0.88215222  0.22874016  0.11875876    -0.13700
C1348       C  0.88182647  0.26461629  0.11830711    -0.13700
C1349       C  0.85566280  0.28264098  0.12331566     0.08300
C1350       C  0.82976676  0.26412466  0.12789022    -0.13700
H1351       H  0.80973110  0.21474068  0.13169939     0.12400
H1352       H  0.90275618  0.21553585  0.11586133     0.12400
H1353       H  0.90219961  0.27820725  0.11516636     0.12400
H1354       H  0.80915988  0.27729051  0.13090282     0.12400
C1355       C  0.85138283  0.15846718  0.26744411    -0.13700
C1356       C  0.85653224  0.12777276  0.28575095     0.08400
C1357       C  0.86232014  0.09763135  0.26660382    -0.13700
C1358       C  0.86272398  0.09812731  0.22998207    -0.13700
C1359       C  0.85729465  0.12875222  0.21169107     0.08400
C1360       C  0.85165721  0.15892265  0.23079771    -0.13700
H1361       H  0.84766820  0.18235303  0.28135900     0.12400
H1362       H  0.86598601  0.07346814  0.27986952     0.12400
H1363       H  0.86668415  0.07433519  0.21598346     0.12400
H1364       H  0.84800449  0.18307009  0.21748974     0.12400
C1365       C  0.88378254  0.26241669  0.36986017    -0.13700
C1366       C  0.85752081  0.28053817  0.37335781     0.08400
C1367       C  0.83158224  0.26238085  0.37835699    -0.13700
C1368       C  0.83158458  0.22658715  0.37834402    -0.13700
C1369       C  0.85752691  0.20838302  0.37336786     0.08400
C1370       C  0.88378699  0.22645710  0.36985615    -0.13700
H1371       H  0.90406698  0.27606403  0.36615495     0.12400
H1372       H  0.81138056  0.27585589  0.38274947     0.12400
H1373       H  0.81138673  0.21315045  0.38270909     0.12400
H1374       H  0.90407816  0.21276647  0.36615027     0.12400
C1375       C  0.74288995  0.12581534  0.15844408    -0.13700
C1376       C  0.72654822  0.12172381  0.12744436     0.08400
C1377       C  0.74139771  0.11676128  0.09571241    -0.13700
C1378       C  0.77198064  0.11744005  0.09510911    -0.13700
C1379       C  0.78806628  0.12318498  0.12621335     0.08400
C1380       C  0.77317924  0.12669625  0.15788616    -0.13700
H1381       H  0.73237375  0.12816005  0.18334903     0.12400
H1382       H  0.72941276  0.11353232  0.07129563     0.12400
H1383       H  0.78297511  0.11462391  0.07027716     0.12400
H1384       H  0.78496455  0.12995469  0.18244865     0.12400
C1385       C  0.65371011  0.26266320  0.09597490    -0.13700
C1386       C  0.65795315  0.28133693  0.12725926     0.08400
C1387       C  0.66199989  0.26337432  0.15879240    -0.13700
C1388       C  0.66209928  0.22749356  0.15906292    -0.13700
C1389       C  0.65809380  0.20877400  0.12780792     0.08400
C1390       C  0.65380525  0.22669693  0.09624627    -0.13700
H1391       H  0.65079158  0.27585258  0.07124953     0.12400
H1392       H  0.66457851  0.27704921  0.18344375     0.12400
H1393       H  0.66475973  0.21442336  0.18389404     0.12400
H1394       H  0.65096465  0.21290942  0.07170073     0.12400
C1395       C  0.74196203  0.36770961  0.15835183    -0.13700
C1396       C  0.72568854  0.36980494  0.12714294     0.08400
C1397       C  0.74044299  0.37356091  0.09525316    -0.13700
C1398       C  0.77100092  0.37364455  0.09471717    -0.13700
C1399       C  0.78707343  0.36979587  0.12604487     0.08400
C1400       C  0.77226138  0.36750347  0.15785169    -0.13700
H1401       H  0.73133622  0.36638289  0.18328928     0.12400
H1402       H  0.72840199  0.37523756  0.07073476     0.12400
H1403       H  0.78202095  0.37542450  0.06982599     0.12400
H1404       H  0.78414578  0.36553168  0.18247053     0.12400
C1405       C  0.62888093  0.36874787  0.26787554    -0.13700
C1406       C  0.65412649  0.36096002  0.28747745     0.08400
C1407       C  0.67985364  0.35324754  0.26962550    -0.13700
C1408       C  0.68039348  0.35313616  0.23310029    -0.13700
C1409       C  0.65547430  0.36164183  0.21326179     0.08400
C1410       C  0.62955188  0.36913398  0.23118649    -0.13700
H1411       H  0.60849308  0.37408425  0.28082666     0.12400
H1412       H  0.69986895  0.34777602  0.28379641     0.12400
H1413       H  0.70063484  0.34668358  0.22083204     0.12400
H1414       H  0.60958471  0.37472065  0.21698813     0.12400
C1415       C  0.73976888  0.33292431  0.36244387    -0.13700
C1416       C  0.72395728  0.36166443  0.37397856     0.08400
C1417       C  0.73975471  0.39075834  0.38545158    -0.13700
C1418       C  0.77035871  0.39101747  0.38489612    -0.13700
C1419       C  0.78600057  0.36220650  0.37280413     0.08400
C1420       C  0.77007440  0.33320163  0.36184565    -0.13700
H1421       H  0.72911117  0.30969084  0.35379804     0.12400
H1422       H  0.72861091  0.41375843  0.39399787     0.12400
H1423       H  0.78158666  0.41418617  0.39308041     0.12400
H1424       H  0.78064583  0.31018077  0.35274489     0.12400
C1425       C  0.68015767  0.13493202  0.27013765    -0.13700
C1426       C  0.65452319  0.12648221  0.28775200     0.08400
C1427       C  0.62946318  0.11828155  0.26791748    -0.13700
C1428       C  0.63016524  0.11855942  0.23122958    -0.13700
C1429       C  0.65592024  0.12717159  0.21354323     0.08400
C1430       C  0.68068422  0.13581134  0.23365082    -0.13700
H1431       H  0.70010643  0.14055802  0.28443188     0.12400
H1432       H  0.60915693  0.11226633  0.28067388     0.12400
H1433       H  0.61030273  0.11271744  0.21687386     0.12400
H1434       H  0.70078186  0.14302446  0.22162580     0.12400
C1435       C  0.74013024  0.09715402  0.38482506    -0.13700
C1436       C  0.72420801  0.12623928  0.37388056     0.08400
C1437       C  0.73989065  0.15504481  0.36262891    -0.13700
C1438       C  0.77018557  0.15492349  0.36196005    -0.13700
C1439       C  0.78625620  0.12602015  0.37258342     0.08400
C1440       C  0.77074986  0.09706094  0.38422354    -0.13700
H1441       H  0.72906640  0.07408781  0.39306849     0.12400
H1442       H  0.72914535  0.17825330  0.35433546     0.12400
H1443       H  0.78063702  0.17803937  0.35318910     0.12400
H1444       H  0.78211279  0.07395480  0.39208804     0.12400
C1445       C  0.67788083  0.22612136  0.38038102    -0.13700
C1446       C  0.65180044  0.20781881  0.37625870     0.08400
C1447       C  0.62539006  0.22589306  0.37344417    -0.13700
C1448       C  0.62536844  0.26190458  0.37327077    -0.13700
C1449       C  0.65175921  0.28006123  0.37585920     0.08400
C1450       C  0.67786340  0.26189615  0.38017096    -0.13700
H1451       H  0.69828762  0.21274884  0.38406389     0.12400
H1452       H  0.60499162  0.21218092  0.37029035     0.12400
H1453       H  0.60494770  0.27553629  0.37003231     0.12400
H1454       H  0.69825214  0.27537696  0.38370467     0.12400
C1455       C  0.60450086  0.07158888  0.42164742    -0.13700
C1456       C  0.62237608  0.08815586  0.40620200    -0.15200
C1457       C  0.60436641  0.41546184  0.07822519    -0.13700
C1458       C  0.62244174  0.39869522  0.09362196    -0.15200
C1459       C  0.89055470  0.09226294  0.09280159    -0.13700
C1460       C  0.90851608  0.07579795  0.07725270    -0.15200
C1461       C  0.60513367  0.07458585  0.07761198    -0.13700
C1462       C  0.62335779  0.09127020  0.09307562    -0.15200
C1463       C  0.88851792  0.39954808  0.40537431    -0.13700
C1464       C  0.90650712  0.41616648  0.42131619    -0.15200
C1465       C  0.90730483  0.07418770  0.42128855    -0.13700
C1466       C  0.88912036  0.09011428  0.40515802    -0.15200
C1467       C  0.62192276  0.39962414  0.40613850    -0.13700
C1468       C  0.60389392  0.41614818  0.42156742    -0.15200
C1469       C  0.90747997  0.41689496  0.07743616    -0.13700
C1470       C  0.88953172  0.40085419  0.09333332    -0.15200
O1471       O  0.95579291  0.42665503  0.93071198    -0.75700
O1472       O  0.92203355  0.45743850  0.96134684    -0.54600
C1473       C  0.92943110  0.43453442  0.93876051     0.78100
O1474       O  0.55513101  0.42600175  0.56830271    -0.60300
O1475       O  0.58909501  0.45656893  0.53818609    -0.53300
C1476       C  0.58150831  0.43371150  0.56045395     0.70100
O1477       O  0.95672625  0.42610810  0.56719377    -0.74800
O1478       O  0.92278439  0.45728967  0.53667975    -0.55400
C1479       C  0.93035444  0.43434205  0.55906787     0.76100
O1480       O  0.55473787  0.42707979  0.93059527    -0.60000
O1481       O  0.58895001  0.45731496  0.96198059    -0.53100
C1482       C  0.58120294  0.43476628  0.93904360     0.72700
Zr1483     Zr  0.00540946  0.44421181  0.94698833     2.54700
O1484       O  0.00531444  0.38166625  0.94596422    -0.80500
O1485       O  0.50448240  0.44687301  0.88323959    -0.94000
Zr1486     Zr  0.00596839  0.44343607  0.55129241     2.64700
O1487       O  0.00586870  0.38094004  0.54749829    -0.98900
O1488       O  0.50605900  0.44679704  0.61526815    -0.81000
O1489       O  0.97748298  0.44329950  0.49900600    -0.84300
O1490       O  0.53366476  0.44289334  0.49932688    -2.19000
O1491       O  0.55515861  0.06181908  0.93056890    -0.67700
O1492       O  0.58903695  0.03125496  0.96183961    -0.52300
C1493       C  0.58152419  0.05361095  0.93883772     0.71000
O1494       O  0.95743915  0.06460418  0.56798933    -0.60600
O1495       O  0.92318109  0.03435829  0.53665065    -0.52600
C1496       C  0.93099269  0.05720878  0.55926186     0.72800
O1497       O  0.55603475  0.06297369  0.56931024    -0.72000
O1498       O  0.58962350  0.03256400  0.53807177    -0.50700
C1499       C  0.58231882  0.05532203  0.56080275     0.74200
O1500       O  0.95672110  0.06490448  0.93195187    -0.67400
O1501       O  0.92276090  0.03345222  0.96119785    -0.54600
C1502       C  0.93032711  0.05656616  0.93922125     0.72600
Zr1503     Zr  0.50583046  0.04624784  0.94824074     2.77500
O1504       O  0.00687416  0.10918151  0.95026423    -0.98100
O1505       O  0.00454734  0.04449430  0.88472783    -0.78900
Zr1506     Zr  0.50650915  0.04571196  0.55273084     2.70100
O1507       O  0.50830894  0.10819326  0.55356200    -0.80200
O1508       O  0.00654707  0.04203915  0.61659934    -0.99300
Zr1509     Zr  0.95017777  0.99533509  0.49967935     2.21500
Zr1510     Zr  0.56166016  0.49472227  0.00026803     2.11100
O1511       O  0.53420147  0.04640758  0.00056834    -2.47900
O1512       O  0.97806874  0.04722141  0.00056928    -0.80000
O1513       O  0.53388593  0.49531011  0.94712971    -0.72200
O1514       O  0.97799154  0.99500832  0.55296417    -2.33100
O1515       O  0.97744059  0.99584829  0.94678909    -2.29300
O1516       O  0.53471619  0.49448517  0.55315363    -0.73900
H1517       H  0.54607683  0.42286452  0.49921894     0.78100
H1518       H  0.96549610  0.99505932  0.57314124     0.79200
H1519       H  0.54684427  0.06623872  0.00072990     0.81400
H1520       H  0.96475753  0.99601984  0.92639283     0.79000
H1521       H  0.99293669  0.46205031  0.62187359     0.42000
H1522       H  0.52044798  0.02457725  0.62236145     0.41000
H1523       H  0.99469426  0.11552835  0.53544993     0.40700
H1524       H  0.52246817  0.11480805  0.96654846     0.38600
H1525       H  0.51834230  0.02485333  0.87846360     0.41700
H1526       H  0.98679776  0.45539659  0.87623382     0.36500
H1527       H  0.00019531  0.37506189  0.97016664     0.42600
H1528       H  0.51935610  0.37442287  0.53337116     0.39100
H1529       H  0.01141960  0.11600149  0.92594960     0.44000
H1530       H  0.49854784  0.42349593  0.87567934     0.42700
H1531       H  0.01328112  0.37325021  0.57064650     0.42800
H1532       H  0.51521193  0.06428154  0.62450611     0.43200
C1533       C  0.64142993  0.11049201  0.88585898     0.86100
C1534       C  0.63725810  0.10592077  0.84623857    -0.54100
C1535       C  0.65425873  0.12723462  0.82686240     0.09000
C1536       C  0.67374333  0.15111338  0.84938437     0.20000
C1537       C  0.67429072  0.10542712  0.89259994    -0.54900
C1538       C  0.69159964  0.12679622  0.87324525     0.09100
C1539       C  0.63559731  0.14862270  0.89301515    -0.54400
C1540       C  0.65272642  0.16995961  0.87401186     0.09700
H1541       H  0.62255804  0.08703558  0.83468886     0.14200
H1542       H  0.68658605  0.16910414  0.83340757     0.00000
H1543       H  0.68280851  0.08678964  0.91112641     0.14500
H1544       H  0.61966600  0.15790874  0.91168608     0.14300
C1545       C  0.64078146  0.37711406  0.88555709     0.86100
C1546       C  0.63513502  0.33898703  0.89230874    -0.54100
C1547       C  0.65226833  0.31773354  0.87299529     0.09000
C1548       C  0.67314283  0.33665807  0.84847170     0.20000
C1549       C  0.67364409  0.38235468  0.89218473    -0.54900
C1550       C  0.69101261  0.36111928  0.87248210     0.09100
C1551       C  0.63645883  0.38166092  0.84599726    -0.54400
C1552       C  0.65350055  0.36042633  0.82630110     0.09700
H1553       H  0.61936417  0.32962648  0.91102842     0.14200
H1554       H  0.68591675  0.31865862  0.83224193     0.00000
H1555       H  0.68209151  0.40104044  0.91090341     0.14500
H1556       H  0.62165767  0.40048997  0.83473960     0.14300
C1557       C  0.64258815  0.37726984  0.61425039     0.86100
C1558       C  0.63822938  0.38179756  0.65381297    -0.54100
C1559       C  0.65653965  0.36226142  0.67408237     0.09000
C1560       C  0.67782487  0.34049608  0.65217165     0.20000
C1561       C  0.67474431  0.38545790  0.60802937    -0.54900
C1562       C  0.69339267  0.36622499  0.62802662     0.09100
C1563       C  0.63960698  0.33855379  0.60745725    -0.54400
C1564       C  0.65805431  0.31908712  0.62755712     0.09700
H1565       H  0.62203522  0.39911405  0.66456461     0.14200
H1566       H  0.69306631  0.32432061  0.66759184     0.00000
H1567       H  0.68204951  0.40495362  0.58984967     0.14500
H1568       H  0.62374980  0.32757504  0.58925046     0.14300
C1569       C  0.64365721  0.11180737  0.61447059     0.86100
C1570       C  0.64017405  0.15043048  0.60813032    -0.54100
C1571       C  0.65828743  0.17023268  0.62849265     0.09000
C1572       C  0.67817541  0.14918702  0.65310299     0.20000
C1573       C  0.67599081  0.10425661  0.60833151    -0.54900
C1574       C  0.69429977  0.12387903  0.62868389     0.09100
C1575       C  0.63917783  0.10709699  0.65391521    -0.54400
C1576       C  0.65713963  0.12685362  0.67457413     0.09700
H1577       H  0.62436739  0.16110446  0.58978409     0.14200
H1578       H  0.69298889  0.16567431  0.66894844     0.00000
H1579       H  0.68362588  0.08503755  0.58982871     0.14500
H1580       H  0.62322043  0.08939775  0.66433448     0.14300
C1581       C  0.86943393  0.11153849  0.88382339     0.86100
C1582       C  0.87460486  0.14992156  0.89025812    -0.54100
C1583       C  0.85685783  0.17047446  0.87070467     0.09000
C1584       C  0.83586355  0.15069217  0.84628432     0.20000
C1585       C  0.83681647  0.10573940  0.89041375    -0.54900
C1586       C  0.81886039  0.12637199  0.87062826     0.09100
C1587       C  0.87318029  0.10637611  0.84432208    -0.54400
C1588       C  0.85566034  0.12708198  0.82436546     0.09700
H1589       H  0.89064607  0.15996789  0.90881425     0.14200
H1590       H  0.82204713  0.16760099  0.82986096     0.00000
H1591       H  0.82890844  0.08745519  0.90946488     0.14500
H1592       H  0.88894860  0.08866703  0.83327465     0.14300
C1593       C  0.87070546  0.11370368  0.61287825     0.86100
C1594       C  0.87522829  0.10900062  0.65244556    -0.54100
C1595       C  0.85738615  0.12906184  0.67241327     0.09000
C1596       C  0.83671011  0.15176164  0.65053803     0.20000
C1597       C  0.83823961  0.10663057  0.60606366    -0.54900
C1598       C  0.82028185  0.12654822  0.62608319     0.09100
C1599       C  0.87462653  0.15220687  0.60654040    -0.54400
C1600       C  0.85665941  0.17235957  0.62623108     0.09700
H1601       H  0.89136322  0.09164772  0.66355174     0.14200
H1602       H  0.82219776  0.16803958  0.66666267     0.00000
H1603       H  0.83028477  0.08711753  0.58788163     0.14500
H1604       H  0.88991107  0.16246116  0.58774372     0.14300
C1605       C  0.86960273  0.37955230  0.61329160     0.86100
C1606       C  0.87332028  0.34109528  0.60602466    -0.54100
C1607       C  0.85521438  0.32081710  0.62515203     0.09000
C1608       C  0.83519409  0.34124827  0.64973949     0.20000
C1609       C  0.83720887  0.38699765  0.60644247    -0.54900
C1610       C  0.81908748  0.36698654  0.62589271     0.09100
C1611       C  0.87394031  0.38363803  0.65308334    -0.54400
C1612       C  0.85587152  0.36334351  0.67234327     0.09700
H1613       H  0.88882553  0.33094497  0.58731050     0.14200
H1614       H  0.82044640  0.32498612  0.66540029     0.00000
H1615       H  0.82940281  0.40677560  0.58868100     0.14500
H1616       H  0.89013043  0.40061956  0.66484613     0.14300
C1617       C  0.86898967  0.37729568  0.88398056     0.86100
C1618       C  0.87300613  0.38196009  0.84451549    -0.54100
C1619       C  0.85557856  0.36114493  0.82434534     0.09000
C1620       C  0.83574509  0.33764718  0.84600914     0.20000
C1621       C  0.83628463  0.38307359  0.89017100    -0.54900
C1622       C  0.81847165  0.36217985  0.87020646     0.09100
C1623       C  0.87414024  0.33897463  0.89050395    -0.54400
C1624       C  0.85658888  0.31817041  0.87068877     0.09700
H1625       H  0.88864690  0.39977673  0.83359921     0.14200
H1626       H  0.82223075  0.32051648  0.82928752     0.00000
H1627       H  0.82825208  0.40156597  0.90913738     0.14500
H1628       H  0.89002748  0.32915254  0.90926696     0.14300
C1629       C  0.86058212  0.39290019  0.73069541    -0.13700
C1630       C  0.85602903  0.36262364  0.71126293     0.08400
C1631       C  0.85123877  0.33171355  0.72920854    -0.13700
C1632       C  0.85118283  0.33111751  0.76591554    -0.13700
C1633       C  0.85578203  0.36146703  0.78535538     0.08400
C1634       C  0.86042693  0.39233691  0.76731091    -0.13700
H1635       H  0.86375797  0.41718745  0.71756986     0.12400
H1636       H  0.84808918  0.30785778  0.71491013     0.12400
H1637       H  0.84807612  0.30679512  0.77899818     0.12400
H1638       H  0.86346045  0.41626122  0.78149387     0.12400
C1639       C  0.83005663  0.22836542  0.62895766    -0.13700
C1640       C  0.85625040  0.21036585  0.62432120     0.08400
C1641       C  0.88198159  0.22890719  0.61848557    -0.13700
C1642       C  0.88159737  0.26477808  0.61805711    -0.13700
C1643       C  0.85547190  0.28278045  0.62344822     0.08300
C1644       C  0.82966872  0.26420479  0.62851171    -0.13700
H1645       H  0.80973848  0.21479117  0.63256247     0.12400
H1646       H  0.90256965  0.21575345  0.61524262     0.12400
H1647       H  0.90192192  0.27837667  0.61458116     0.12400
H1648       H  0.80907300  0.27731070  0.63184818     0.12400
C1649       C  0.85143436  0.15831909  0.76711153    -0.13700
C1650       C  0.85647242  0.12760401  0.78541493     0.08400
C1651       C  0.86237606  0.09748743  0.76626606    -0.13700
C1652       C  0.86296554  0.09801463  0.72964426    -0.13700
C1653       C  0.85759133  0.12864487  0.71135204     0.08400
C1654       C  0.85191649  0.15881135  0.73046926    -0.13700
H1655       H  0.84764410  0.18218669  0.78103124     0.12400
H1656       H  0.86598397  0.07331175  0.77952840     0.12400
H1657       H  0.86697705  0.07423614  0.71564400     0.12400
H1658       H  0.84833578  0.18297872  0.71717209     0.12400
C1659       C  0.88357831  0.26235086  0.86854583    -0.13700
C1660       C  0.85735862  0.28039296  0.87280954     0.08400
C1661       C  0.83154360  0.26219504  0.87841920    -0.13700
C1662       C  0.83166388  0.22640559  0.87859491    -0.13700
C1663       C  0.85753225  0.20826707  0.87289485     0.08400
C1664       C  0.88366291  0.22639305  0.86853742    -0.13700
H1665       H  0.90374780  0.27606765  0.86428513     0.12400
H1666       H  0.81136812  0.27565233  0.88316668     0.12400
H1667       H  0.81162727  0.21292576  0.88368851     0.12400
H1668       H  0.90389152  0.21274636  0.86423499     0.12400
C1669       C  0.74299586  0.12628307  0.65830103    -0.13700
C1670       C  0.72661976  0.12166945  0.62741630     0.08400
C1671       C  0.74141912  0.11642944  0.59569566    -0.13700
C1672       C  0.77199302  0.11724958  0.59501264    -0.13700
C1673       C  0.78810556  0.12338228  0.62602697     0.08400
C1674       C  0.77325608  0.12726962  0.65767220    -0.13700
H1675       H  0.73254650  0.12890088  0.68320317     0.12400
H1676       H  0.72940741  0.11283685  0.57134918     0.12400
H1677       H  0.78295218  0.11417073  0.57018957     0.12400
H1678       H  0.78503480  0.13081066  0.68219546     0.12400
C1679       C  0.65385508  0.26227771  0.59605671    -0.13700
C1680       C  0.65795461  0.28094030  0.62737633     0.08400
C1681       C  0.66198733  0.26296563  0.65890148    -0.13700
C1682       C  0.66212339  0.22708281  0.65913862    -0.13700
C1683       C  0.65816267  0.20837338  0.62786461     0.08400
C1684       C  0.65398131  0.22630730  0.59629463    -0.13700
H1685       H  0.65099541  0.27548920  0.57133458     0.12400
H1686       H  0.66450963  0.27663312  0.68356603     0.12400
H1687       H  0.66474659  0.21400079  0.68396842     0.12400
H1688       H  0.65121849  0.21252723  0.57173216     0.12400
C1689       C  0.74187143  0.36733261  0.65811643    -0.13700
C1690       C  0.72557477  0.36966883  0.62694440     0.08400
C1691       C  0.74030912  0.37409597  0.59511845    -0.13700
C1692       C  0.77087078  0.37448155  0.59457239    -0.13700
C1693       C  0.78697783  0.37030225  0.62583014     0.08400
C1694       C  0.77217070  0.36752786  0.65760798    -0.13700
H1695       H  0.73126229  0.36547127  0.68304236     0.12400
H1696       H  0.72826306  0.37602291  0.57062535     0.12400
H1697       H  0.78186399  0.37667936  0.56970045     0.12400
H1698       H  0.78405593  0.36537396  0.68220662     0.12400
C1699       C  0.62871755  0.36907440  0.76769491    -0.13700
C1700       C  0.65380930  0.36082711  0.78736634     0.08400
C1701       C  0.67948575  0.35266513  0.76958863    -0.13700
C1702       C  0.68012159  0.35253185  0.73307840    -0.13700
C1703       C  0.65535188  0.36145547  0.71317505     0.08400
C1704       C  0.62947952  0.36940035  0.73102117    -0.13700
H1705       H  0.60836663  0.37479185  0.78056288     0.12400
H1706       H  0.69942611  0.34691386  0.78378512     0.12400
H1707       H  0.70034653  0.34582271  0.72088074     0.12400
H1708       H  0.60960163  0.37530694  0.71678636     0.12400
C1709       C  0.73955666  0.33307784  0.86155390    -0.13700
C1710       C  0.72371857  0.36172558  0.87329883     0.08400
C1711       C  0.73952656  0.39084323  0.88471927    -0.13700
C1712       C  0.77014890  0.39115853  0.88403708    -0.13700
C1713       C  0.78581810  0.36235580  0.87193727     0.08400
C1714       C  0.76987710  0.33337221  0.86092823    -0.13700
H1715       H  0.72891595  0.30982869  0.85292298     0.12400
H1716       H  0.72837395  0.41379026  0.89340107     0.12400
H1717       H  0.78137743  0.41431530  0.89225863     0.12400
H1718       H  0.78047403  0.31029979  0.85196079     0.12400
C1719       C  0.68025993  0.13500077  0.77028384    -0.13700
C1720       C  0.65457260  0.12688553  0.78792334     0.08400
C1721       C  0.62944804  0.11885543  0.76811157    -0.13700
C1722       C  0.63016744  0.11886473  0.73141382    -0.13700
C1723       C  0.65600586  0.12704144  0.71370120     0.08400
C1724       C  0.68081896  0.13555289  0.73378247    -0.13700
H1725       H  0.70022236  0.14055404  0.78458520     0.12400
H1726       H  0.60909742  0.11311691  0.78090073     0.12400
H1727       H  0.61027827  0.11313440  0.71705739     0.12400
H1728       H  0.70097525  0.14242463  0.72172097     0.12400
C1729       C  0.74015139  0.09704047  0.88427523    -0.13700
C1730       C  0.72426086  0.12644643  0.87424040     0.08400
C1731       C  0.73995455  0.15553137  0.86374759    -0.13700
C1732       C  0.77025527  0.15535650  0.86292982    -0.13700
C1733       C  0.78627598  0.12612217  0.87265217     0.08400
C1734       C  0.77076122  0.09688936  0.88351600    -0.13700
H1735       H  0.72904710  0.07376438  0.89182470     0.12400
H1736       H  0.72919636  0.17887581  0.85592237     0.12400
H1737       H  0.78077495  0.17857164  0.85454741     0.12400
H1738       H  0.78212858  0.07353618  0.89057957     0.12400
C1739       C  0.67779209  0.22615801  0.88065561    -0.13700
C1740       C  0.65172966  0.20777390  0.87688654     0.08400
C1741       C  0.62525869  0.22574250  0.87433668    -0.13700
C1742       C  0.62517296  0.26173816  0.87388799    -0.13700
C1743       C  0.65155920  0.27995863  0.87590557     0.08400
C1744       C  0.67773037  0.26190391  0.88002881    -0.13700
H1745       H  0.69822202  0.21288708  0.88435795     0.12400
H1746       H  0.60486222  0.21196185  0.87153351     0.12400
H1747       H  0.60469869  0.27529871  0.87086056     0.12400
H1748       H  0.69813165  0.27545010  0.88316043     0.12400
C1749       C  0.60440770  0.07134864  0.92122599    -0.13700
C1750       C  0.62240035  0.08794249  0.90601126    -0.15200
C1751       C  0.60422556  0.41490220  0.57790562    -0.13700
C1752       C  0.62224594  0.39815645  0.59344334    -0.15200
C1753       C  0.89045685  0.09247782  0.59204800    -0.13700
C1754       C  0.90839130  0.07600964  0.57643050    -0.15200
C1755       C  0.60529743  0.07408211  0.57794807    -0.13700
C1756       C  0.62353793  0.09074898  0.59334814    -0.15200
C1757       C  0.88850221  0.39935025  0.90505227    -0.13700
C1758       C  0.90649279  0.41605779  0.92096264    -0.15200
C1759       C  0.90745473  0.07437799  0.92099990    -0.13700
C1760       C  0.88917753  0.09010383  0.90481007    -0.15200
C1761       C  0.62175692  0.39954124  0.90613812    -0.13700
C1762       C  0.60389312  0.41631642  0.92157891    -0.15200
C1763       C  0.90758765  0.41653837  0.57684405    -0.13700
C1764       C  0.88958670  0.40069918  0.59286507    -0.15200
O1765       O  0.95603560  0.92591081  0.43145111    -0.75700
O1766       O  0.92235550  0.95702240  0.46184705    -0.54600
C1767       C  0.92970552  0.93387452  0.43949470     0.78100
O1768       O  0.55514025  0.92635251  0.06867733    -0.60300
O1769       O  0.58914669  0.95652853  0.03819839    -0.53300
C1770       C  0.58154455  0.93394171  0.06073770     0.70100
O1771       O  0.95636579  0.92634086  0.06715295    -0.74800
O1772       O  0.92246866  0.95787940  0.03698827    -0.55400
C1773       C  0.92999561  0.93467688  0.05915795     0.76100
O1774       O  0.55473945  0.92761043  0.43014046    -0.60000
O1775       O  0.58886512  0.95718943  0.46226768    -0.53100
C1776       C  0.58116622  0.93506013  0.43890675     0.72700
Zr1777     Zr  0.00542267  0.94440874  0.44726533     2.54700
O1778       O  0.00621118  0.88191583  0.44534780    -0.80500
O1779       O  0.50537509  0.94742175  0.38345981    -0.94000
Zr1780     Zr  0.00565083  0.94391155  0.05169366     2.64700
O1781       O  0.00516470  0.88139759  0.04881844    -0.98900
O1782       O  0.50557269  0.94278226  0.11501148    -0.81000
O1783       O  0.97745754  0.94388661  0.99919370    -0.84300
O1784       O  0.53357335  0.94287184  0.99907482    -2.19000
O1785       O  0.55536401  0.56185092  0.43099709    -0.67700
O1786       O  0.58928000  0.53126210  0.46214641    -0.52300
C1787       C  0.58173747  0.55369787  0.43927161     0.71000
O1788       O  0.95729426  0.56425178  0.06807160    -0.60600
O1789       O  0.92304134  0.53347285  0.03730618    -0.52600
C1790       C  0.93085067  0.55650864  0.05972451     0.72800
O1791       O  0.55599217  0.56328028  0.06956671    -0.72000
O1792       O  0.58950424  0.53285208  0.03818560    -0.50700
C1793       C  0.58225712  0.55564057  0.06095431     0.74200
O1794       O  0.95673760  0.56480714  0.43220401    -0.67400
O1795       O  0.92281192  0.53295643  0.46101534    -0.54600
C1796       C  0.93035895  0.55633427  0.43931831     0.72600
Zr1797     Zr  0.50585246  0.54622598  0.44798856     2.77500
O1798       O  0.00631598  0.60870344  0.45031550    -0.98100
O1799       O  0.00456653  0.54429185  0.38460740    -0.78900
Zr1800     Zr  0.50659930  0.54548214  0.05304830     2.70100
O1801       O  0.50691145  0.60795925  0.05573898    -0.80200
O1802       O  0.00588791  0.54064296  0.11660081    -0.99300
Zr1803     Zr  0.95004270  0.49521472  0.99946986     2.21500
Zr1804     Zr  0.56156949  0.99465555  0.50040303     2.11100
O1805       O  0.53412205  0.54654223  0.50040411    -2.47900
O1806       O  0.97807389  0.54682544  0.50046849    -0.80000
O1807       O  0.53394498  0.99524831  0.44721828    -0.72200
O1808       O  0.97780636  0.49469198  0.05274895    -2.33100
O1809       O  0.97747967  0.49529357  0.44657312    -2.29300
O1810       O  0.53459016  0.99411608  0.05312249    -0.73900
H1811       H  0.54601670  0.92287220  0.99885054     0.78100
H1812       H  0.96531299  0.49469662  0.07292524     0.79200
H1813       H  0.54674147  0.56639461  0.50057051     0.81400
H1814       H  0.96478314  0.49549794  0.42618771     0.79000
H1815       H  0.02045078  0.95985341  0.12280296     0.42000
H1816       H  0.52527483  0.53130383  0.12310449     0.41000
H1817       H  0.01234850  0.61525945  0.03209224     0.40700
H1818       H  0.52243224  0.61517506  0.46473933     0.38600
H1819       H  0.51799100  0.52496464  0.37806102     0.41700
H1820       H  0.98847585  0.96311191  0.37764603     0.36500
H1821       H  0.99908310  0.87486965  0.46864111     0.42600
H1822       H  0.52225546  0.87486312  0.03303076     0.39100
H1823       H  0.00997112  0.61565016  0.42581162     0.44000
H1824       H  0.50152487  0.92354742  0.37559905     0.42700
H1825       H  0.00982236  0.87399969  0.07304837     0.42800
H1826       H  0.50649740  0.56485119  0.12519451     0.43200
C1827       C  0.64146253  0.61053669  0.38608001     0.86100
C1828       C  0.63731459  0.60552299  0.34651634    -0.54100
C1829       C  0.65433273  0.62662146  0.32692554     0.09000
C1830       C  0.67379039  0.65075087  0.34921327     0.20000
C1831       C  0.67430282  0.60552726  0.39292335    -0.54900
C1832       C  0.69163539  0.62668853  0.37338011     0.09100
C1833       C  0.63562351  0.64874541  0.39280282    -0.54400
C1834       C  0.65275923  0.66988235  0.37357306     0.09700
H1835       H  0.62261033  0.58652001  0.33518515     0.14200
H1836       H  0.68659977  0.66862091  0.33309037     0.00000
H1837       H  0.68277651  0.58708690  0.41168111     0.14500
H1838       H  0.61971374  0.65822781  0.41139723     0.14300
C1839       C  0.64075040  0.87720919  0.38584668     0.86100
C1840       C  0.63524271  0.83905783  0.39280378    -0.54100
C1841       C  0.65242258  0.81779825  0.37350454     0.09000
C1842       C  0.67318815  0.83675094  0.34889330     0.20000
C1843       C  0.67358073  0.88262186  0.39242060    -0.54900
C1844       C  0.69099344  0.86133283  0.37285274     0.09100
C1845       C  0.63634733  0.88155492  0.34629921    -0.54400
C1846       C  0.65341263  0.86032022  0.32669582     0.09700
H1847       H  0.61948862  0.82970697  0.41154517     0.14200
H1848       H  0.68597913  0.81881012  0.33261191     0.00000
H1849       H  0.68196028  0.90137979  0.41110554     0.14500
H1850       H  0.62146681  0.90024893  0.33494752     0.14300
C1851       C  0.64269008  0.87775865  0.11483183     0.86100
C1852       C  0.63834289  0.88236265  0.15439843    -0.54100
C1853       C  0.65654912  0.86269845  0.17465677     0.09000
C1854       C  0.67770124  0.84073349  0.15281827     0.20000
C1855       C  0.67492779  0.88563347  0.10859578    -0.54900
C1856       C  0.69345375  0.86624683  0.12863161     0.09100
C1857       C  0.63947063  0.83905768  0.10811431    -0.54400
C1858       C  0.65778162  0.81945761  0.12826451     0.09700
H1859       H  0.62219108  0.89971542  0.16519742     0.14200
H1860       H  0.69283122  0.82449677  0.16833932     0.00000
H1861       H  0.68237454  0.90498497  0.09034223     0.14500
H1862       H  0.62354709  0.82819869  0.08991702     0.14300
C1863       C  0.64370855  0.61217756  0.11446770     0.86100
C1864       C  0.64022385  0.65081899  0.10830874    -0.54100
C1865       C  0.65825584  0.67056971  0.12883729     0.09000
C1866       C  0.67811892  0.64941682  0.15340625     0.20000
C1867       C  0.67605811  0.60467720  0.10843001    -0.54900
C1868       C  0.69430938  0.62422560  0.12893365     0.09100
C1869       C  0.63914208  0.60727246  0.15384398    -0.54400
C1870       C  0.65704996  0.62690621  0.17467865     0.09700
H1871       H  0.62443270  0.66153253  0.08997222     0.14200
H1872       H  0.69292102  0.66583500  0.16933486     0.00000
H1873       H  0.68375107  0.58551757  0.08990073     0.14500
H1874       H  0.62321681  0.58942894  0.16406852     0.14300
C1875       C  0.86955177  0.61166287  0.38411779     0.86100
C1876       C  0.87458835  0.65007916  0.39051083    -0.54100
C1877       C  0.85678486  0.67053574  0.37090517     0.09000
C1878       C  0.83591303  0.65061506  0.34645211     0.20000
C1879       C  0.83693467  0.60575564  0.39065463    -0.54900
C1880       C  0.81892802  0.62630114  0.37081882     0.09100
C1881       C  0.87336632  0.60645062  0.34464881    -0.54400
C1882       C  0.85578880  0.62701279  0.32464892     0.09700
H1883       H  0.89055518  0.66021112  0.40910934     0.14200
H1884       H  0.82214833  0.66743547  0.32988707     0.00000
H1885       H  0.82908700  0.58748997  0.40975282     0.14500
H1886       H  0.88916714  0.58875950  0.33363276     0.14300
C1887       C  0.87067012  0.61313735  0.11335970     0.86100
C1888       C  0.87506854  0.60825133  0.15291137    -0.54100
C1889       C  0.85721807  0.62829892  0.17285604     0.09000
C1890       C  0.83664485  0.65113360  0.15103589     0.20000
C1891       C  0.83820351  0.60619667  0.10637426    -0.54900
C1892       C  0.82024924  0.62606995  0.12644396     0.09100
C1893       C  0.87469265  0.65167920  0.10722520    -0.54400
C1894       C  0.85668112  0.67178570  0.12692919     0.09700
H1895       H  0.89115497  0.59084472  0.16403489     0.14200
H1896       H  0.82211324  0.66737819  0.16717608     0.00000
H1897       H  0.83024529  0.58678894  0.08807592     0.14500
H1898       H  0.89007542  0.66199346  0.08858000     0.14300
C1899       C  0.86971575  0.87898940  0.11351961     0.86100
C1900       C  0.87358034  0.84046408  0.10657930    -0.54100
C1901       C  0.85556658  0.82025320  0.12594825     0.09000
C1902       C  0.83556232  0.84076579  0.15045375     0.20000
C1903       C  0.83725561  0.88613085  0.10675039    -0.54900
C1904       C  0.81927271  0.86614915  0.12641521     0.09100
C1905       C  0.87414611  0.88340075  0.15327668    -0.54400
C1906       C  0.85622740  0.86316290  0.17280930     0.09700
H1907       H  0.88904380  0.83022121  0.08786637     0.14200
H1908       H  0.82090667  0.82452753  0.16626216     0.00000
H1909       H  0.82929876  0.90567739  0.08881907     0.14500
H1910       H  0.89031786  0.90054872  0.16481127     0.14300
C1911       C  0.86890482  0.87724855  0.38471670     0.86100
C1912       C  0.87288201  0.88229164  0.34529113    -0.54100
C1913       C  0.85543987  0.86167071  0.32494155     0.09000
C1914       C  0.83556758  0.83802186  0.34643909     0.20000
C1915       C  0.83622708  0.88303166  0.39105324    -0.54900
C1916       C  0.81836983  0.86233469  0.37092842     0.09100
C1917       C  0.87398226  0.83887409  0.39087918    -0.54400
C1918       C  0.85636617  0.81827393  0.37094021     0.09700
H1919       H  0.88860528  0.90010430  0.33454089     0.14200
H1920       H  0.82200244  0.82107293  0.32959537     0.00000
H1921       H  0.82825049  0.90130680  0.41027174     0.14500
H1922       H  0.88983520  0.82886326  0.40957814     0.14300
C1923       C  0.86146937  0.89298062  0.23109810    -0.13700
C1924       C  0.85652797  0.86269296  0.21177689     0.08400
C1925       C  0.85138846  0.83196668  0.22989538    -0.13700
C1926       C  0.85115746  0.83157094  0.26658684    -0.13700
C1927       C  0.85594583  0.86193069  0.28592766     0.08400
C1928       C  0.86115824  0.89261303  0.26774714    -0.13700
H1929       H  0.86500131  0.91714277  0.21787200     0.12400
H1930       H  0.84805110  0.80806145  0.21575390     0.12400
H1931       H  0.84774912  0.80734666  0.27973621     0.12400
H1932       H  0.86446510  0.91654723  0.28182640     0.12400
C1933       C  0.83014632  0.72787250  0.12971451    -0.13700
C1934       C  0.85634030  0.70980229  0.12527493     0.08400
C1935       C  0.88216051  0.72827455  0.11982500    -0.13700
C1936       C  0.88185986  0.76414003  0.11938628    -0.13700
C1937       C  0.85573444  0.78221447  0.12441126     0.08300
C1938       C  0.82984359  0.76372415  0.12925827    -0.13700
H1939       H  0.80977419  0.71434825  0.13311357     0.12400
H1940       H  0.90274337  0.71505502  0.11681817     0.12400
H1941       H  0.90223228  0.77769652  0.11613063     0.12400
H1942       H  0.80925699  0.77691161  0.13238158     0.12400
C1943       C  0.85167037  0.65797185  0.26732543    -0.13700
C1944       C  0.85650508  0.62729243  0.28573297     0.08400
C1945       C  0.86208622  0.59699272  0.26673878    -0.13700
C1946       C  0.86258332  0.59733252  0.23011682    -0.13700
C1947       C  0.85743919  0.62795809  0.21173909     0.08400
C1948       C  0.85206913  0.65828080  0.23070632    -0.13700
H1949       H  0.84811827  0.68194402  0.28115429     0.12400
H1950       H  0.86553034  0.57285337  0.28013398     0.12400
H1951       H  0.86637250  0.57345832  0.21618791     0.12400
H1952       H  0.84868581  0.68243052  0.21730297     0.12400
C1953       C  0.88336022  0.76247319  0.36961142    -0.13700
C1954       C  0.85703002  0.78047928  0.37292491     0.08400
C1955       C  0.83111507  0.76223176  0.37774372    -0.13700
C1956       C  0.83126543  0.72643966  0.37789388    -0.13700
C1957       C  0.85729515  0.70834473  0.37309113     0.08400
C1958       C  0.88349590  0.72653270  0.36968062    -0.13700
H1959       H  0.90362270  0.77620796  0.36606269     0.12400
H1960       H  0.81084844  0.77562197  0.38199839     0.12400
H1961       H  0.81112989  0.71293852  0.38234073     0.12400
H1962       H  0.90385623  0.71294354  0.36614215     0.12400
C1963       C  0.74299270  0.62605407  0.15870990    -0.13700
C1964       C  0.72661932  0.62193755  0.12774643     0.08400
C1965       C  0.74139859  0.61691561  0.09597991    -0.13700
C1966       C  0.77196340  0.61741661  0.09531020    -0.13700
C1967       C  0.78808988  0.62300384  0.12639495     0.08400
C1968       C  0.77326771  0.62666906  0.15809811    -0.13700
H1969       H  0.73252753  0.62852234  0.18363471     0.12400
H1970       H  0.72937257  0.61372267  0.07158872     0.12400
H1971       H  0.78291226  0.61454367  0.07045512     0.12400
H1972       H  0.78508224  0.62980955  0.18265485     0.12400
C1973       C  0.65302438  0.76270693  0.09682293    -0.13700
C1974       C  0.65750031  0.78131227  0.12809801     0.08400
C1975       C  0.66190940  0.76327289  0.15952496    -0.13700
C1976       C  0.66220081  0.72738417  0.15966205    -0.13700
C1977       C  0.65799483  0.70873277  0.12838781     0.08400
C1978       C  0.65331241  0.72674984  0.09695872    -0.13700
H1979       H  0.64983210  0.77594627  0.07217236     0.12400
H1980       H  0.66466450  0.77688100  0.18418943     0.12400
H1981       H  0.66515048  0.71426237  0.18441895     0.12400
H1982       H  0.65031733  0.71305337  0.07238762     0.12400
C1983       C  0.74202043  0.86681905  0.15862412    -0.13700
C1984       C  0.72569005  0.86920866  0.12747462     0.08400
C1985       C  0.74044159  0.87315412  0.09559921    -0.13700
C1986       C  0.77101178  0.87319437  0.09502143    -0.13700
C1987       C  0.78713041  0.86917792  0.12630212     0.08400
C1988       C  0.77232124  0.86664411  0.15809294    -0.13700
H1989       H  0.73145416  0.86531619  0.18356910     0.12400
H1990       H  0.72838857  0.87505636  0.07110978     0.12400
H1991       H  0.78200050  0.87514363  0.07012513     0.12400
H1992       H  0.78420019  0.86457315  0.18270463     0.12400
C1993       C  0.62839139  0.86813780  0.26813806    -0.13700
C1994       C  0.65366339  0.86064497  0.28780537     0.08400
C1995       C  0.67952977  0.85335856  0.27008875    -0.13700
C1996       C  0.68020696  0.85343750  0.23360232    -0.13700
C1997       C  0.65529178  0.86173748  0.21369727     0.08400
C1998       C  0.62920741  0.86874344  0.23146751    -0.13700
H1999       H  0.60791292  0.87313639  0.28102424     0.12400
H2000       H  0.69955619  0.84813569  0.28433939     0.12400
H2001       H  0.70054798  0.84733629  0.22141357     0.12400
H2002       H  0.60925794  0.87413183  0.21714438     0.12400
C2003       C  0.73951143  0.83322956  0.36210265    -0.13700
C2004       C  0.72367918  0.86182276  0.37397204     0.08400
C2005       C  0.73948350  0.89078164  0.38582040    -0.13700
C2006       C  0.77009564  0.89105448  0.38528497    -0.13700
C2007       C  0.78574730  0.86239646  0.37284446     0.08400
C2008       C  0.76981234  0.83351767  0.36153978    -0.13700
H2009       H  0.72890157  0.81007809  0.35316702     0.12400
H2010       H  0.72835327  0.91367619  0.39467102     0.12400
H2011       H  0.78132575  0.91411574  0.39378277     0.12400
H2012       H  0.78036708  0.81057628  0.35221052     0.12400
C2013       C  0.68019349  0.63466607  0.27033436    -0.13700
C2014       C  0.65465415  0.62597402  0.28799395     0.08400
C2015       C  0.62966840  0.61731275  0.26819870    -0.13700
C2016       C  0.63033613  0.61753981  0.23150529    -0.13700
C2017       C  0.65597190  0.62660336  0.21379181     0.08400
C2018       C  0.68068122  0.63548774  0.23386558    -0.13700
H2019       H  0.70011144  0.64055193  0.28457307     0.12400
H2020       H  0.60943048  0.61102562  0.28097342     0.12400
H2021       H  0.61052230  0.61138326  0.21718828     0.12400
H2022       H  0.70071650  0.64290789  0.22183516     0.12400
C2023       C  0.74022220  0.59728466  0.38538403    -0.13700
C2024       C  0.72429925  0.62638436  0.37449949     0.08400
C2025       C  0.73997574  0.65519854  0.36327171    -0.13700
C2026       C  0.77026110  0.65501818  0.36242653    -0.13700
C2027       C  0.78632964  0.62605890  0.37289034     0.08400
C2028       C  0.77083384  0.59713202  0.38460587    -0.13700
H2029       H  0.72915736  0.57420949  0.39359829     0.12400
H2030       H  0.72923676  0.67835220  0.35485647     0.12400
H2031       H  0.78069142  0.67804426  0.35341849     0.12400
H2032       H  0.78219825  0.57397988  0.39232224     0.12400
C2033       C  0.67796589  0.72608604  0.37977051    -0.13700
C2034       C  0.65186179  0.70774290  0.37618561     0.08400
C2035       C  0.62539689  0.72577777  0.37404109    -0.13700
C2036       C  0.62531950  0.76178531  0.37406982    -0.13700
C2037       C  0.65170948  0.77998395  0.37615385     0.08400
C2038       C  0.67790428  0.76184630  0.37967055    -0.13700
H2039       H  0.69842166  0.71278120  0.38309318     0.12400
H2040       H  0.60497212  0.71204441  0.37131922     0.12400
H2041       H  0.60483411  0.77538552  0.37138801     0.12400
H2042       H  0.69833195  0.77533029  0.38277272     0.12400
C2043       C  0.60456868  0.57156454  0.42176012    -0.13700
C2044       C  0.62247475  0.58818228  0.40646065    -0.15200
C2045       C  0.60430352  0.91531806  0.07837946    -0.13700
C2046       C  0.62240388  0.89871199  0.09397116    -0.15200
C2047       C  0.89041430  0.59186208  0.09257882    -0.13700
C2048       C  0.90827677  0.57524684  0.07700610    -0.15200
C2049       C  0.60529507  0.57447190  0.07796999    -0.13700
C2050       C  0.62360140  0.59116690  0.09325101    -0.15200
C2051       C  0.88854585  0.89895168  0.40595391    -0.13700
C2052       C  0.90671327  0.91537075  0.42186476    -0.15200
C2053       C  0.90751398  0.57435340  0.42125769    -0.13700
C2054       C  0.88930930  0.59026322  0.40513411    -0.15200
C2055       C  0.62172439  0.89975802  0.40622732    -0.13700
C2056       C  0.60386424  0.91669128  0.42145354    -0.15200
C2057       C  0.90724608  0.91656314  0.07678966    -0.13700
C2058       C  0.88948719  0.90029447  0.09283444    -0.15200
O2059       O  0.95628965  0.92635582  0.93100040    -0.75700
O2060       O  0.92253743  0.95757136  0.96120502    -0.54600
C2061       C  0.92994899  0.93439112  0.93890511     0.78100
O2062       O  0.55532494  0.92708394  0.56935818    -0.60300
O2063       O  0.58918303  0.95693863  0.53832510    -0.53300
C2064       C  0.58167536  0.93455757  0.56108600     0.70100
O2065       O  0.95699435  0.92604107  0.56756132    -0.74800
O2066       O  0.92298761  0.95756034  0.53753061    -0.55400
C2067       C  0.93061151  0.93438269  0.55965795     0.76100
O2068       O  0.55444562  0.92710222  0.92974625    -0.60000
O2069       O  0.58865834  0.95661633  0.96187654    -0.53100
C2070       C  0.58091270  0.93447477  0.93850451     0.72700
Zr2071     Zr  0.00554853  0.94471782  0.94734346     2.54700
O2072       O  0.00614658  0.88222396  0.94785952    -0.80500
O2073       O  0.50465430  0.94946113  0.88299578    -0.94000
Zr2074     Zr  0.00609060  0.94382721  0.55172319     2.64700
O2075       O  0.00633356  0.88130359  0.54871154    -0.98900
O2076       O  0.50455742  0.94234536  0.61530656    -0.81000
O2077       O  0.97763246  0.94346749  0.49936766    -0.84300
O2078       O  0.53384564  0.94290638  0.49955908    -2.19000
O2079       O  0.55508390  0.56246881  0.93095503    -0.67700
O2080       O  0.58898098  0.53159929  0.96184022    -0.52300
C2081       C  0.58144525  0.55412786  0.93902841     0.71000
O2082       O  0.95759418  0.56409963  0.56866071    -0.60600
O2083       O  0.92336294  0.53405105  0.53710639    -0.52600
C2084       C  0.93114261  0.55670464  0.55997008     0.72800
O2085       O  0.55594597  0.56345356  0.56878531    -0.72000
O2086       O  0.58956931  0.53279167  0.53782861    -0.50700
C2087       C  0.58225388  0.55572720  0.56041636     0.74200
O2088       O  0.95652344  0.56484404  0.93210487    -0.67400
O2089       O  0.92269263  0.53344755  0.96158454    -0.54600
C2090       C  0.93017423  0.55663566  0.93963432     0.72600
Zr2091     Zr  0.50589649  0.54660258  0.94868782     2.77500
O2092       O  0.00687308  0.60889489  0.95166276    -0.98100
O2093       O  0.00444984  0.54623917  0.88476937    -0.78900
Zr2094     Zr  0.50648826  0.54554880  0.55255508     2.70100
O2095       O  0.50729117  0.60795474  0.55668196    -0.80200
O2096       O  0.00646742  0.54198515  0.61658824    -0.99300
Zr2097     Zr  0.95018548  0.49531356  0.49942382     2.21500
Zr2098     Zr  0.56162323  0.99440789  0.00016265     2.11100
O2099       O  0.53432000  0.54674072  0.00094143    -2.47900
O2100       O  0.97780870  0.54689348  0.00062298    -0.80000
O2101       O  0.53391990  0.99508939  0.94702125    -0.72200
O2102       O  0.97793543  0.49466631  0.55269455    -2.33100
O2103       O  0.97729823  0.49541465  0.94656327    -2.29300
O2104       O  0.53456800  0.99445925  0.55342241    -0.73900
H2105       H  0.54634908  0.92295522  0.49938689     0.78100
H2106       H  0.96538603  0.49468377  0.57281796     0.79200
H2107       H  0.54697344  0.56656385  0.00116422     0.81400
H2108       H  0.96459147  0.49564928  0.92618660     0.79000
H2109       H  0.01992403  0.96152922  0.62267253     0.42000
H2110       H  0.52362739  0.52449286  0.62125351     0.41000
H2111       H  0.99857386  0.61468961  0.53124420     0.40700
H2112       H  0.52466739  0.61486931  0.96526538     0.38600
H2113       H  0.51721680  0.52633030  0.87829015     0.41700
H2114       H  0.98726598  0.96034590  0.87740146     0.36500
H2115       H  0.99572915  0.87604099  0.96953450     0.42600
H2116       H  0.52402523  0.87498171  0.53578938     0.39100
H2117       H  0.00793622  0.61627905  0.92689797     0.44000
H2118       H  0.50123859  0.92575269  0.87435271     0.42700
H2119       H  0.00999539  0.87391456  0.57317777     0.42800
H2120       H  0.51146199  0.56189413  0.62531037     0.43200
C2121       C  0.64140293  0.61069053  0.88583692     0.86100
C2122       C  0.63703990  0.60638776  0.84620191    -0.54100
C2123       C  0.65412115  0.62766376  0.82687021     0.09000
C2124       C  0.67380439  0.65123051  0.84942989     0.20000
C2125       C  0.67425197  0.60527458  0.89234400    -0.54900
C2126       C  0.69160913  0.62664282  0.87304193     0.09100
C2127       C  0.63586294  0.64883025  0.89327470    -0.54400
C2128       C  0.65304208  0.67009957  0.87427685     0.09700
H2129       H  0.62219014  0.58768487  0.83462161     0.14200
H2130       H  0.68658456  0.66926790  0.83346945     0.00000
H2131       H  0.68270350  0.58648841  0.91075255     0.14500
H2132       H  0.62003272  0.65817256  0.91204169     0.14300
C2133       C  0.64082097  0.87715998  0.88499175     0.86100
C2134       C  0.63543951  0.83899572  0.89185681    -0.54100
C2135       C  0.65270346  0.81783079  0.87260202     0.09000
C2136       C  0.67346038  0.83686468  0.84803564     0.20000
C2137       C  0.67365667  0.88272046  0.89159779    -0.54900
C2138       C  0.69116183  0.86155018  0.87199979     0.09100
C2139       C  0.63647008  0.88153064  0.84542627    -0.54400
C2140       C  0.65365147  0.86039726  0.82580801     0.09700
H2141       H  0.61969609  0.82954148  0.91055973     0.14200
H2142       H  0.68635996  0.81894664  0.83184325     0.00000
H2143       H  0.68199692  0.90150809  0.91027897     0.14500
H2144       H  0.62155410  0.90019306  0.83409509     0.14300
C2145       C  0.64300034  0.87795768  0.61401280     0.86100
C2146       C  0.63880262  0.88263149  0.65356681    -0.54100
C2147       C  0.65699301  0.86291898  0.67376304     0.09000
C2148       C  0.67803233  0.84087939  0.65185127     0.20000
C2149       C  0.67519546  0.88575508  0.60757978    -0.54900
C2150       C  0.69372945  0.86635845  0.62756210     0.09100
C2151       C  0.63965831  0.83926492  0.60732796    -0.54400
C2152       C  0.65798901  0.81963592  0.62742314     0.09700
H2153       H  0.62273589  0.90007555  0.66439595     0.14200
H2154       H  0.69318256  0.82461018  0.66730600     0.00000
H2155       H  0.68260951  0.90512840  0.58932788     0.14500
H2156       H  0.62362947  0.82843667  0.58924630     0.14300
C2157       C  0.64350269  0.61230779  0.61449206     0.86100
C2158       C  0.63992222  0.65092742  0.60822324    -0.54100
C2159       C  0.65800881  0.67079301  0.62856757     0.09000
C2160       C  0.67803308  0.64979917  0.65306840     0.20000
C2161       C  0.67584054  0.60487340  0.60827834    -0.54900
C2162       C  0.69414804  0.62451684  0.62860350     0.09100
C2163       C  0.63913042  0.60758193  0.65396949    -0.54400
C2164       C  0.65708662  0.62742010  0.67459013     0.09700
H2165       H  0.62402074  0.66154999  0.58996776     0.14200
H2166       H  0.69286825  0.66630687  0.66886638     0.00000
H2167       H  0.68348624  0.58563969  0.58979881     0.14500
H2168       H  0.62321945  0.58985511  0.66443256     0.14300
C2169       C  0.86939702  0.61210183  0.88459818     0.86100
C2170       C  0.87458345  0.65052351  0.89073780    -0.54100
C2171       C  0.85681279  0.67091932  0.87103547     0.09000
C2172       C  0.83580661  0.65097899  0.84679823     0.20000
C2173       C  0.83679395  0.60638484  0.89129754    -0.54900
C2174       C  0.81882852  0.62683386  0.87133195     0.09100
C2175       C  0.87308684  0.60664109  0.84510849    -0.54400
C2176       C  0.85555009  0.62721825  0.82504686     0.09700
H2177       H  0.89063275  0.66070841  0.90920439     0.14200
H2178       H  0.82203313  0.66777324  0.83020406     0.00000
H2179       H  0.82891047  0.58822863  0.91048761     0.14500
H2180       H  0.88878666  0.58880881  0.83412293     0.14300
C2181       C  0.87061362  0.61308718  0.61368288     0.86100
C2182       C  0.87477213  0.60825022  0.65329567    -0.54100
C2183       C  0.85688431  0.62839963  0.67310432     0.09000
C2184       C  0.83650122  0.65130258  0.65107533     0.20000
C2185       C  0.83814058  0.60628385  0.60647744    -0.54900
C2186       C  0.82013303  0.62626152  0.62639891     0.09100
C2187       C  0.87474584  0.65159962  0.60750406    -0.54400
C2188       C  0.85668887  0.67184144  0.62700582     0.09700
H2189       H  0.89072677  0.59076970  0.66456708     0.14200
H2190       H  0.82196572  0.66761750  0.66713385     0.00000
H2191       H  0.83021397  0.58687917  0.58815867     0.14500
H2192       H  0.89017915  0.66177708  0.58884454     0.14300
C2193       C  0.86990599  0.87905728  0.61340301     0.86100
C2194       C  0.87369522  0.84056049  0.60639089    -0.54100
C2195       C  0.85554416  0.82036495  0.62557033     0.09000
C2196       C  0.83545651  0.84093235  0.64996891     0.20000
C2197       C  0.83752510  0.88636522  0.60634169    -0.54900
C2198       C  0.81938805  0.86642441  0.62583433     0.09100
C2199       C  0.87411509  0.88342806  0.65317599    -0.54400
C2200       C  0.85601104  0.86327865  0.67252042     0.09700
H2201       H  0.88920020  0.83034540  0.58771479     0.14200
H2202       H  0.82067364  0.82476260  0.66567003     0.00000
H2203       H  0.82973229  0.90598960  0.58839511     0.14500
H2204       H  0.89023807  0.90054200  0.66486805     0.14300
C2205       C  0.86917847  0.87754943  0.88431253     0.86100
C2206       C  0.87300351  0.88255120  0.84484064    -0.54100
C2207       C  0.85547797  0.86189361  0.82462226     0.09000
C2208       C  0.83576499  0.83822423  0.84625403     0.20000
C2209       C  0.83648778  0.88329039  0.89078611    -0.54900
C2210       C  0.81860517  0.86256109  0.87072562     0.09100
C2211       C  0.87435203  0.83919181  0.89048983    -0.54400
C2212       C  0.85669973  0.81855708  0.87065006     0.09700
H2213       H  0.88862109  0.90041757  0.83396237     0.14200
H2214       H  0.82215182  0.82122257  0.82952141     0.00000
H2215       H  0.82850104  0.90165431  0.90991534     0.14500
H2216       H  0.89029393  0.82921662  0.90910362     0.14300
C2217       C  0.86077903  0.89329879  0.73075498    -0.13700
C2218       C  0.85600396  0.86294383  0.71147359     0.08400
C2219       C  0.85089012  0.83223708  0.72961163    -0.13700
C2220       C  0.85077233  0.83185662  0.76629846    -0.13700
C2221       C  0.85562045  0.86222289  0.78561125     0.08400
C2222       C  0.86054787  0.89295383  0.76740773    -0.13700
H2223       H  0.86422217  0.91746141  0.71749237     0.12400
H2224       H  0.84759709  0.80831361  0.71548753     0.12400
H2225       H  0.84749466  0.80761445  0.77946062     0.12400
H2226       H  0.86380034  0.91690327  0.78148075     0.12400
C2227       C  0.83015728  0.72797324  0.62976952    -0.13700
C2228       C  0.85629111  0.70986952  0.62495713     0.08400
C2229       C  0.88199190  0.72833946  0.61873930    -0.13700
C2230       C  0.88167799  0.76420278  0.61820487    -0.13700
C2231       C  0.85565609  0.78231180  0.62388255     0.08300
C2232       C  0.82984131  0.76382025  0.62922221    -0.13700
H2233       H  0.80982512  0.71449383  0.63358968     0.12400
H2234       H  0.90253667  0.71514855  0.61530991     0.12400
H2235       H  0.90200821  0.77770947  0.61446232     0.12400
H2236       H  0.80929001  0.77698359  0.63270496     0.12400
C2237       C  0.85157958  0.65818507  0.76767001    -0.13700
C2238       C  0.85619967  0.62746308  0.78610628     0.08400
C2239       C  0.86141161  0.59708236  0.76710703    -0.13700
C2240       C  0.86178454  0.59738275  0.73046124    -0.13700
C2241       C  0.85692547  0.62806004  0.71204013     0.08400
C2242       C  0.85185061  0.65845566  0.73102205    -0.13700
H2243       H  0.84828772  0.68221138  0.78150374     0.12400
H2244       H  0.86467819  0.57292268  0.78052836     0.12400
H2245       H  0.86532202  0.57345072  0.71653864     0.12400
H2246       H  0.84864393  0.68262858  0.71760006     0.12400
C2247       C  0.88359546  0.76270178  0.86862090    -0.13700
C2248       C  0.85737451  0.78078537  0.87264584     0.08400
C2249       C  0.83150361  0.76264422  0.87808167    -0.13700
C2250       C  0.83155904  0.72686695  0.87824899    -0.13700
C2251       C  0.85746436  0.70869763  0.87291303     0.08400
C2252       C  0.88363996  0.72676066  0.86872768    -0.13700
H2253       H  0.90381349  0.77637174  0.86453046     0.12400
H2254       H  0.81135012  0.77611942  0.88280387     0.12400
H2255       H  0.81145844  0.71342307  0.88313257     0.12400
H2256       H  0.90388585  0.71307078  0.86468680     0.12400
C2257       C  0.74278715  0.62641454  0.65837968    -0.13700
C2258       C  0.72645767  0.62213589  0.62741626     0.08400
C2259       C  0.74128886  0.61689068  0.59571521    -0.13700
C2260       C  0.77186979  0.61743072  0.59511721    -0.13700
C2261       C  0.78794846  0.62325326  0.62620948     0.08400
C2262       C  0.77305509  0.62707946  0.65784122    -0.13700
H2263       H  0.73228608  0.62898498  0.68326519     0.12400
H2264       H  0.72929798  0.61350779  0.57132393     0.12400
H2265       H  0.78286515  0.61438757  0.57031294     0.12400
H2266       H  0.78480592  0.63035272  0.68242162     0.12400
C2267       C  0.65296597  0.76280144  0.59623746    -0.13700
C2268       C  0.65753076  0.78150166  0.62743149     0.08400
C2269       C  0.66180769  0.76357232  0.65895103    -0.13700
C2270       C  0.66191484  0.72768328  0.65924178    -0.13700
C2271       C  0.65767822  0.70894047  0.62802675     0.08400
C2272       C  0.65306332  0.72684887  0.59652868    -0.13700
H2273       H  0.64986105  0.77596332  0.57152885     0.12400
H2274       H  0.66462483  0.77727300  0.68355462     0.12400
H2275       H  0.66480825  0.71463243  0.68404922     0.12400
H2276       H  0.65002807  0.71306434  0.57201544     0.12400
C2277       C  0.74213304  0.86720344  0.65771642    -0.13700
C2278       C  0.72591500  0.86949972  0.62649231     0.08400
C2279       C  0.74072307  0.87357527  0.59467565    -0.13700
C2280       C  0.77128555  0.87370514  0.59422642    -0.13700
C2281       C  0.78729317  0.86963791  0.62557544     0.08400
C2282       C  0.77241422  0.86710556  0.65731074    -0.13700
H2283       H  0.73148457  0.86567642  0.68261640     0.12400
H2284       H  0.72872877  0.87546824  0.57014335     0.12400
H2285       H  0.78235160  0.87569748  0.56938360     0.12400
H2286       H  0.78422276  0.86503962  0.68197108     0.12400
C2287       C  0.62883330  0.86869107  0.76719117    -0.13700
C2288       C  0.65399524  0.86081187  0.78690010     0.08400
C2289       C  0.67981550  0.85319336  0.76919986    -0.13700
C2290       C  0.68053775  0.85328206  0.73271149    -0.13700
C2291       C  0.65572712  0.86194973  0.71279108     0.08400
C2292       C  0.62969919  0.86931282  0.73053606    -0.13700
H2293       H  0.60837802  0.87394961  0.78002027     0.12400
H2294       H  0.69978306  0.84769296  0.78344962     0.12400
H2295       H  0.70083227  0.84689033  0.72054263     0.12400
H2296       H  0.60980452  0.87496880  0.71621528     0.12400
C2297       C  0.73974909  0.83346103  0.86179291    -0.13700
C2298       C  0.72385981  0.86223163  0.87307081     0.08400
C2299       C  0.73961105  0.89144406  0.88438027    -0.13700
C2300       C  0.77025488  0.89169497  0.88407969    -0.13700
C2301       C  0.78596088  0.86276853  0.87238752     0.08400
C2302       C  0.77005987  0.83373031  0.86145171    -0.13700
H2303       H  0.72914477  0.81014092  0.85329236     0.12400
H2304       H  0.72839681  0.91447703  0.89270694     0.12400
H2305       H  0.78148870  0.91488170  0.89221564     0.12400
H2306       H  0.78066863  0.81061080  0.85267600     0.12400
C2307       C  0.68012141  0.63579376  0.77031885    -0.13700
C2308       C  0.65444132  0.62751977  0.78793144     0.08400
C2309       C  0.62934310  0.61950122  0.76808808    -0.13700
C2310       C  0.63010081  0.61952487  0.73140122    -0.13700
C2311       C  0.65593642  0.62775290  0.71371614     0.08400
C2312       C  0.68070044  0.63643272  0.73381864    -0.13700
H2313       H  0.70008342  0.64134793  0.78461676     0.12400
H2314       H  0.60899112  0.61369696  0.78084022     0.12400
H2315       H  0.61023795  0.61372871  0.71702395     0.12400
H2316       H  0.70084546  0.64342764  0.72177858     0.12400
C2317       C  0.74020620  0.59721922  0.88485653    -0.13700
C2318       C  0.72425555  0.62633628  0.87409649     0.08400
C2319       C  0.73988659  0.65533016  0.86322009    -0.13700
C2320       C  0.77017011  0.65533545  0.86268676    -0.13700
C2321       C  0.78625503  0.62640162  0.87313391     0.08400
C2322       C  0.77081727  0.59727509  0.88443688    -0.13700
H2323       H  0.72917629  0.57402875  0.89280572     0.12400
H2324       H  0.72912401  0.67857389  0.85508013     0.12400
H2325       H  0.78061447  0.67852324  0.85409215     0.12400
H2326       H  0.78224261  0.57415070  0.89211889     0.12400
C2327       C  0.67819045  0.72624751  0.88114919    -0.13700
C2328       C  0.65212985  0.70789593  0.87704933     0.08400
C2329       C  0.62573293  0.72586662  0.87370654    -0.13700
C2330       C  0.62569148  0.76183767  0.87295377    -0.13700
C2331       C  0.65204833  0.78005405  0.87550076     0.08400
C2332       C  0.67816577  0.76201064  0.88027238    -0.13700
H2333       H  0.69857603  0.71292706  0.88521078     0.12400
H2334       H  0.60537188  0.71208420  0.87050750     0.12400
H2335       H  0.60527477  0.77539003  0.86934348     0.12400
H2336       H  0.69852925  0.77557708  0.88371243     0.12400
C2337       C  0.60429386  0.57182180  0.92133751    -0.13700
C2338       C  0.62230888  0.58826126  0.90600765    -0.15200
C2339       C  0.60450244  0.91585821  0.57835777    -0.13700
C2340       C  0.62269831  0.89902321  0.59343448    -0.15200
C2341       C  0.89049627  0.59177274  0.59300662    -0.13700
C2342       C  0.90849947  0.57533077  0.57739711    -0.15200
C2343       C  0.60522695  0.57453524  0.57767435    -0.13700
C2344       C  0.62338893  0.59119804  0.59329562    -0.15200
C2345       C  0.88885764  0.89932613  0.90542045    -0.13700
C2346       C  0.90700507  0.91584536  0.92125075    -0.15200
C2347       C  0.90728494  0.57474589  0.92176601    -0.13700
C2348       C  0.88910222  0.59072370  0.90568824    -0.15200
C2349       C  0.62160604  0.89947884  0.90548763    -0.13700
C2350       C  0.60363056  0.91613171  0.92091192    -0.15200
C2351       C  0.90789580  0.91630957  0.57725078    -0.13700
C2352       C  0.88990456  0.90021488  0.59302052    -0.15200
loop_ 
_geom_bond_atom_site_label_1 
_geom_bond_atom_site_label_2 
_geom_bond_distance 
_geom_bond_site_symmetry_2 
_ccdc_geom_bond_type 
O1          Zr13   2.450       .  S
O1            C3   1.288       .  A
O2         Zr921   2.418       .  S
O2            C3   1.284       .  A
C3          C288   1.436       .  S
O4        Zr1192   2.442       .  S
O4            C6   1.286       .  A
O5         Zr334   2.422       .  S
O5            C6   1.284       .  A
C6          C281   1.434       .  S
O7          Zr16   2.443       .  S
O7            C9   1.287       .  A
O8         Zr627   2.419   1_554  S
O8            C9   1.284       .  A
C9          C293   1.433       .  S
O10       Zr1189   2.446       .  S
O10          C12   1.287       .  A
O11         Zr40   2.414       .  S
O11          C12   1.283       .  A
C12         C292   1.431       .  S
Zr13       O1186   2.447       .  S
Zr13         O14   2.433       .  S
Zr13       O1191   2.435       .  S
Zr13        O313   2.373       .  S
Zr13       O1490   2.373       .  S
Zr13       O1219   2.372       .  S
Zr13        O633   2.371       .  S
O14          H57   0.990       .  S
O15       Zr1189   2.435       .  S
O15          H60   0.990       .  S
O15        H1232   0.990   1_455  S
Zr16       O1180   2.443       .  S
Zr16         O17   2.436       .  S
Zr16       O1194   2.434       .  S
Zr16         O19   2.372   1_554  S
Zr16       O1196   2.370   1_554  S
Zr16        O632   2.372       .  S
Zr16       O1222   2.376       .  S
O17          H61   0.990       .  S
O17        H1234   0.990       .  S
O18       Zr1192   2.434       .  S
O18        H1227   0.990       .  S
O19        Zr307   2.372       .  S
O19        Zr627   2.380       .  S
O20       Zr1483   2.371       .  S
O20       Zr1192   2.371   1_556  S
O20        Zr334   2.384   1_556  S
O20          H47   0.965       .  S
O21         Zr33   2.444       .  S
O21          C23   1.287       .  A
O22        Zr628   2.414   1_545  S
O22          C23   1.282       .  A
C23         C279   1.431       .  S
O24       Zr1212   2.442       .  S
O24          C26   1.287       .  A
O25         Zr39   2.418   1_544  S
O25          C26   1.283       .  A
C26         C284   1.431       .  S
O27         Zr36   2.444       .  S
O27          C29   1.287       .  A
O28        Zr922   2.420   1_545  S
O28          C29   1.284       .  A
C29         C285   1.433       .  S
O30       Zr1209   2.445       .  S
O30          C32   1.287       .  A
O31        Zr333   2.419   1_545  S
O31          C32   1.284       .  A
C32         C289   1.433       .  S
Zr33       O1206   2.442   1_455  S
Zr33       O1210   2.437       .  S
Zr33       O1211   2.433       .  S
Zr33         O41   2.370       .  S
Zr33       O1218   2.373   1_455  S
Zr33       O1221   2.372   1_445  S
Zr33        O631   2.374   1_545  S
O34       Zr1209   2.437       .  S
O34          H59   0.990       .  S
O34        H1230   0.990       .  S
O35       Zr1209   2.434       .  S
O35        H1231   0.990       .  S
Zr36       O1200   2.440   1_455  S
Zr36         O37   2.434       .  S
Zr36       O1214   2.435       .  S
Zr36       O1512   2.375   1_455  S
Zr36        O335   2.371       .  S
Zr36        O634   2.373   1_545  S
Zr36       O1220   2.372   1_445  S
O37        H1229   0.990       .  S
O38       Zr1212   2.434       .  S
O38        H1228   0.990       .  S
O38        H1238   0.990       .  S
Zr39        O884   2.424       .  S
Zr39        O596   2.420   1_556  S
Zr39        O325   2.416   1_565  S
Zr39         O44   2.384   1_556  S
Zr39        O607   2.379       .  S
Zr39        O336   2.380   1_566  S
Zr39        O339   2.381       .  S
Zr40        O299   2.417       .  S
Zr40        O610   2.416       .  S
Zr40        O910   2.419       .  S
Zr40         O43   2.380       .  S
Zr40        O314   2.382       .  S
Zr40        O629   2.382       .  S
Zr40        O340   2.381       .  S
O41        Zr330   2.369       .  S
O41        Zr628   2.383   1_545  S
O41          H49   0.966       .  S
O42       Zr1209   2.374       .  S
O42       Zr1506   2.375       .  S
O42        Zr333   2.381   1_545  S
O43       Zr1189   2.373       .  S
O43        Zr621   2.373       .  S
O44        Zr604   2.373       .  S
O44       Zr1212   2.370   1_565  S
O44          H48   0.964       .  S
O45        Zr601   2.372       .  S
O45       Zr1209   2.372   1_565  S
O45        Zr333   2.384       .  S
O45          H50   0.966       .  S
O46       Zr1192   2.375       .  S
O46        Zr624   2.373       .  S
O46        Zr334   2.381       .  S
H51        O1194   0.990       .  S
H52        O1214   0.990       .  S
H53        O1213   0.990       .  S
H54        O1210   0.990       .  S
H55        O1211   0.990       .  S
H56        O1191   0.990       .  S
H58        O1193   0.990       .  S
H62        O1214   0.990       .  S
C63          C64   1.530       .  S
C63          C69   1.531       .  S
C63          C67   1.540       .  S
C63         C280   1.464       .  S
C64          H71   1.086       .  S
C64          C65   1.365       .  D
C65          C66   1.541       .  S
C65         C250   1.486       .  S
C66          C70   1.537       .  S
C66          C68   1.546       .  S
C66          H72   1.104       .  S
C67          H73   1.085       .  S
C67          C68   1.374       .  D
C68         C260   1.501       .  S
C69          H74   1.087       .  S
C69          C70   1.361       .  D
C70         C270   1.476       .  S
C75          C76   1.530       .  S
C75          C81   1.530       .  S
C75          C79   1.539       .  S
C75         C291   1.464       .  S
C76          H83   1.087       .  S
C76          C77   1.361       .  D
C77          C78   1.537       .  S
C77         C273   1.475       .  S
C78          C82   1.540       .  S
C78          C80   1.547       .  S
C78          H84   1.105       .  S
C79          H85   1.085       .  S
C79          C80   1.374       .  D
C80         C240   1.499       .  S
C81          H86   1.086       .  S
C81          C82   1.365       .  D
C82         C230   1.485       .  S
C87          C88   1.534       .  S
C87          C93   1.533       .  S
C87          C91   1.532       .  S
C87         C282   1.467       .  S
C88          H95   1.085       .  S
C88          C89   1.369       .  D
C89          C90   1.542       .  S
C89         C233   1.492       .  S
C90          C94   1.538       .  S
C90          C92   1.544       .  S
C90          H96   1.107       .  S
C91          H97   1.086       .  S
C91          C92   1.366       .  D
C92         C220   1.484       .  S
C93          H98   1.086       .  S
C93          C94   1.367       .  D
C94         C210   1.483       .  S
C99         C100   1.530       .  S
C99         C105   1.531       .  S
C99         C103   1.533       .  S
C99         C286   1.466       .  S
C100        H107   1.086       .  S
C100        C101   1.366       .  D
C101        C102   1.541       .  S
C101        C213   1.483       .  S
C102        C106   1.544       .  S
C102        C104   1.545       .  S
C102        H108   1.107       .  S
C103        H109   1.086       .  S
C103        C104   1.368       .  D
C104        C200   1.486       .  S
C105        H110   1.085       .  S
C105        C106   1.368       .  D
C106        C253   1.494       .  S
C111        C112   1.531       .  S
C111        C117   1.529       .  S
C111        C115   1.537       .  S
C111        C290   1.466       .  S
C112        H119   1.087       .  S
C112        C113   1.361       .  D
C113        C114   1.537       .  S
C113        C193   1.474       .  S
C114        C118   1.542       .  S
C114        C116   1.549       .  S
C114        H120   1.105       .  S
C115        H121   1.085       .  S
C115        C116   1.373       .  D
C116        C263   1.501       .  S
C117        H122   1.086       .  S
C117        C118   1.366       .  D
C118        C180   1.487       .  S
C123        C124   1.532       .  S
C123        C129   1.530       .  S
C123        C127   1.534       .  S
C123        C283   1.464       .  S
C124        H131   1.086       .  S
C124        C125   1.366       .  D
C125        C126   1.539       .  S
C125        C183   1.485       .  S
C126        C130   1.539       .  S
C126        C128   1.541       .  S
C126        H132   1.108       .  S
C127        H133   1.086       .  S
C127        C128   1.367       .  D
C128        C203   1.481       .  S
C129        H134   1.086       .  S
C129        C130   1.366       .  D
C130        C170   1.481       .  S
C135        C136   1.531       .  S
C135        C141   1.536       .  S
C135        C139   1.534       .  S
C135        C294   1.466       .  S
C136        H143   1.086       .  S
C136        C137   1.366       .  D
C137        C138   1.538       .  S
C137        C173   1.481       .  S
C138        C142   1.537       .  S
C138        C140   1.540       .  S
C138        H144   1.108       .  S
C139        H145   1.086       .  S
C139        C140   1.367       .  D
C140        C223   1.479       .  S
C141        H146   1.086       .  S
C141        C142   1.368       .  D
C142        C160   1.488       .  S
C147        C148   1.531       .  S
C147        C153   1.530       .  S
C147        C151   1.537       .  S
C147        C287   1.469       .  S
C148        H155   1.086       .  S
C148        C149   1.368       .  D
C149        C150   1.541       .  S
C149        C163   1.490       .  S
C150        C154   1.538       .  S
C150        C152   1.548       .  S
C150        H156   1.105       .  S
C151        H157   1.085       .  S
C151        C152   1.373       .  D
C152        C243   1.499       .  S
C153        H158   1.087       .  S
C153        C154   1.361       .  D
C154        C190   1.474       .  S
C159        C160   1.404       .  A
C159        C164   1.398       .  A
C159        H165   1.082       .  S
C160        C161   1.406       .  A
C161        C162   1.400       .  A
C161        H166   1.083       .  S
C162        C163   1.406       .  A
C162        H167   1.082       .  S
C163        C164   1.406       .  A
C164        H168   1.082       .  S
C169        C170   1.404       .  A
C169        C174   1.395       .  A
C169        H175   1.082       .  S
C170        C171   1.405       .  A
C171        C172   1.396       .  A
C171        H176   1.083       .  S
C172        C173   1.405       .  A
C172        H177   1.082       .  S
C173        C174   1.404       .  A
C174        H178   1.082       .  S
C179        C180   1.406       .  A
C179        C184   1.398       .  A
C179        H185   1.082       .  S
C180        C181   1.405       .  A
C181        C182   1.397       .  A
C181        H186   1.082       .  S
C182        C183   1.405       .  A
C182        H187   1.083       .  S
C183        C184   1.404       .  A
C184        H188   1.083       .  S
C189        C190   1.404       .  A
C189        C194   1.400       .  A
C189        H195   1.083       .  S
C190        C191   1.399       .  A
C191        C192   1.392       .  A
C191        H196   1.079       .  S
C192        C193   1.399       .  A
C192        H197   1.079       .  S
C193        C194   1.404       .  A
C194        H198   1.083       .  S
C199        C200   1.401       .  A
C199        C204   1.390       .  A
C199        H205   1.074       .  S
C200        C201   1.407       .  A
C201        C202   1.404       .  A
C201        H206   1.083       .  S
C202        C203   1.407       .  A
C202        H207   1.083       .  S
C203        C204   1.400       .  A
C204        H208   1.083       .  S
C209        C210   1.404       .  A
C209        C214   1.399       .  A
C209        H215   1.083       .  S
C210        C211   1.405       .  A
C211        C212   1.396       .  A
C211        H216   1.083       .  S
C212        C213   1.403       .  A
C212        H217   1.083       .  S
C213        C214   1.406       .  A
C214        H218   1.083       .  S
C219        C220   1.400       .  A
C219        C224   1.390       .  A
C219        H225   1.075       .  S
C220        C221   1.407       .  A
C221        C222   1.404       .  A
C221        H226   1.083       .  S
C222        C223   1.406       .  A
C222        H227   1.083       .  S
C223        C224   1.400       .  A
C224        H228   1.083       .  S
C229        C230   1.405       .  A
C229        C234   1.399       .  A
C229        H235   1.082       .  S
C230        C231   1.401       .  A
C231        C232   1.392       .  A
C231        H236   1.082       .  S
C232        C233   1.404       .  A
C232        H237   1.074       .  S
C233        C234   1.408       .  A
C234        H238   1.082       .  S
C239        C240   1.404       .  A
C239        C244   1.390       .  A
C239        H245   1.076       .  S
C240        C241   1.410       .  A
C241        C242   1.406       .  A
C241        H246   1.081       .  S
C242        C243   1.410       .  A
C242        H247   1.082       .  S
C243        C244   1.403       .  A
C244        H248   1.076       .  S
C249        C250   1.402       .  A
C249        C254   1.393       .  A
C249        H255   1.082       .  S
C250        C251   1.405       .  A
C251        C252   1.399       .  A
C251        H256   1.082       .  S
C252        C253   1.409       .  A
C252        H257   1.082       .  S
C253        C254   1.404       .  A
C254        H258   1.073       .  S
C259        C260   1.410       .  A
C259        C264   1.407       .  A
C259        H265   1.081       .  S
C260        C261   1.404       .  A
C261        C262   1.391       .  A
C261        H266   1.076       .  S
C262        C263   1.403       .  A
C262        H267   1.076       .  S
C263        C264   1.410       .  A
C264        H268   1.082       .  S
C269        C270   1.400       .  A
C269        C274   1.392       .  A
C269        H275   1.079       .  S
C270        C271   1.404       .  A
C271        C272   1.401       .  A
C271        H276   1.083       .  S
C272        C273   1.405       .  A
C272        H277   1.083       .  S
C273        C274   1.399       .  A
C274        H278   1.080       .  S
C279        C280   1.204       .  T
C281        C282   1.205       .  T
C283        C284   1.204       .  T
C285        C286   1.205       .  T
C287        C288   1.206       .  T
C289        C290   1.205       .  T
C291        C292   1.204       .  T
C293        C294   1.205       .  T
O295       Zr307   2.450       .  S
O295        C297   1.288       .  A
O296       Zr627   2.423       .  S
O296        C297   1.285       .  A
C297        C582   1.438       .  S
O298      Zr1486   2.443       .  S
O298        C300   1.287       .  A
O299        C300   1.283       .  A
C300        C575   1.431       .  S
O301       Zr310   2.438       .  S
O301        C303   1.286       .  A
O302       Zr921   2.420       .  S
O302        C303   1.284       .  A
C303        C587   1.431       .  S
O304      Zr1483   2.450       .  S
O304        C306   1.288       .  A
O305       Zr334   2.415   1_556  S
O305        C306   1.283       .  A
C306        C586   1.434       .  S
Zr307      O1480   2.449       .  S
Zr307       O308   2.434       .  S
Zr307      O1485   2.435       .  S
Zr307      O1196   2.370       .  S
Zr307      O1513   2.374       .  S
Zr307       O927   2.373       .  S
O308        H351   0.990       .  S
O309      Zr1483   2.435       .  S
O309       H1526   0.990   1_455  S
O309        H354   0.990       .  S
Zr310      O1474   2.443       .  S
Zr310       O311   2.435       .  S
Zr310      O1488   2.436       .  S
Zr310      O1490   2.371       .  S
Zr310       O313   2.373       .  S
Zr310       O926   2.372       .  S
Zr310      O1516   2.373       .  S
O311       H1528   0.990       .  S
O311        H355   0.990       .  S
O312      Zr1486   2.435       .  S
O312       H1521   0.990   1_455  S
O313       Zr921   2.381       .  S
O314      Zr1189   2.370       .  S
O314      Zr1486   2.369       .  S
O314        H341   0.965       .  S
O315       Zr327   2.446       .  S
O315        C317   1.288       .  A
O316       Zr922   2.418   1_546  S
O316        C317   1.283       .  A
C317        C573   1.433       .  S
O318      Zr1506   2.444       .  S
O318        C320   1.287       .  A
O319       Zr333   2.421   1_545  S
O319        C320   1.284       .  A
C320        C578   1.434       .  S
O321       Zr330   2.447       .  S
O321        C323   1.287       .  A
O322       Zr628   2.417   1_545  S
O322        C323   1.283       .  A
C323        C579   1.434       .  S
O324      Zr1503   2.445       .  S
O324        C326   1.288       .  A
O325        C326   1.283       .  A
C326        C583   1.432       .  S
Zr327      O1500   2.447   1_455  S
Zr327      O1504   2.436       .  S
Zr327      O1505   2.434       .  S
Zr327       O335   2.371   1_556  S
Zr327      O1512   2.372   1_456  S
Zr327      O1515   2.370   1_445  S
Zr327       O925   2.373   1_545  S
O328      Zr1503   2.436       .  S
O328       H1524   0.990       .  S
O328        H353   0.990       .  S
O329      Zr1503   2.433       .  S
O329       H1525   0.990       .  S
Zr330      O1494   2.444   1_455  S
Zr330       O331   2.434       .  S
Zr330      O1508   2.435       .  S
Zr330      O1218   2.375   1_455  S
Zr330       O928   2.373   1_545  S
Zr330      O1514   2.372   1_445  S
O331       H1523   0.990   1_455  S
O332      Zr1506   2.434       .  S
O332       H1522   0.990       .  S
O332       H1532   0.990       .  S
Zr333       O590   2.420       .  S
Zr333       O890   2.420       .  S
Zr333       O901   2.379       .  S
Zr333       O338   2.386       .  S
Zr334       O904   2.415   1_554  S
Zr334       O616   2.422       .  S
Zr334       O923   2.384       .  S
Zr334       O337   2.381   1_554  S
O335       Zr922   2.383   1_545  S
O335        H343   0.966       .  S
O336      Zr1503   2.372   1_554  S
O336      Zr1212   2.374       .  S
O337      Zr1483   2.371       .  S
O337       Zr915   2.373       .  S
O338       Zr898   2.374       .  S
O338      Zr1506   2.372   1_565  S
O338        H342   0.965       .  S
O339       Zr895   2.370       .  S
O339      Zr1503   2.370   1_565  S
O339        H344   0.966       .  S
O340      Zr1486   2.375       .  S
O340       Zr918   2.372       .  S
H345       O1488   0.990       .  S
H346       O1508   0.990       .  S
H347       O1507   0.990       .  S
H348       O1504   0.990       .  S
H349       O1505   0.990       .  S
H350       O1485   0.990       .  S
H352       O1487   0.990       .  S
H356       O1508   0.990       .  S
C357        C358   1.531       .  S
C357        C363   1.532       .  S
C357        C361   1.540       .  S
C357        C574   1.466       .  S
C358        H365   1.086       .  S
C358        C359   1.365       .  D
C359        C360   1.541       .  S
C359        C544   1.485       .  S
C360        C364   1.536       .  S
C360        C362   1.545       .  S
C360        H366   1.105       .  S
C361        H367   1.085       .  S
C361        C362   1.374       .  D
C362        C554   1.499       .  S
C363        H368   1.086       .  S
C363        C364   1.361       .  D
C364        C564   1.476       .  S
C369        C370   1.531       .  S
C369        C375   1.530       .  S
C369        C373   1.539       .  S
C369        C585   1.466       .  S
C370        H377   1.086       .  S
C370        C371   1.361       .  D
C371        C372   1.537       .  S
C371        C567   1.476       .  S
C372        C376   1.541       .  S
C372        C374   1.546       .  S
C372        H378   1.105       .  S
C373        H379   1.085       .  S
C373        C374   1.374       .  D
C374        C534   1.500       .  S
C375        H380   1.086       .  S
C375        C376   1.365       .  D
C376        C524   1.485       .  S
C381        C382   1.532       .  S
C381        C387   1.533       .  S
C381        C385   1.531       .  S
C381        C576   1.465       .  S
C382        H389   1.086       .  S
C382        C383   1.368       .  D
C383        C384   1.543       .  S
C383        C527   1.493       .  S
C384        C388   1.540       .  S
C384        C386   1.545       .  S
C384        H390   1.107       .  S
C385        H391   1.086       .  S
C385        C386   1.366       .  D
C386        C514   1.484       .  S
C387        H392   1.086       .  S
C387        C388   1.367       .  D
C388        C504   1.485       .  S
C393        C394   1.533       .  S
C393        C399   1.532       .  S
C393        C397   1.533       .  S
C393        C580   1.467       .  S
C394        H401   1.086       .  S
C394        C395   1.367       .  D
C395        C396   1.541       .  S
C395        C507   1.485       .  S
C396        C400   1.544       .  S
C396        C398   1.545       .  S
C396        H402   1.107       .  S
C397        H403   1.086       .  S
C397        C398   1.367       .  D
C398        C494   1.487       .  S
C399        H404   1.086       .  S
C399        C400   1.367       .  D
C400        C547   1.493       .  S
C405        C406   1.531       .  S
C405        C411   1.530       .  S
C405        C409   1.537       .  S
C405        C584   1.465       .  S
C406        H413   1.087       .  S
C406        C407   1.361       .  D
C407        C408   1.536       .  S
C407        C487   1.473       .  S
C408        C412   1.541       .  S
C408        C410   1.547       .  S
C408        H414   1.105       .  S
C409        H415   1.085       .  S
C409        C410   1.373       .  D
C410        C557   1.499       .  S
C411        H416   1.086       .  S
C411        C412   1.367       .  D
C412        C474   1.487       .  S
C417        C418   1.532       .  S
C417        C423   1.530       .  S
C417        C421   1.535       .  S
C417        C577   1.466       .  S
C418        H425   1.086       .  S
C418        C419   1.366       .  D
C419        C420   1.538       .  S
C419        C477   1.485       .  S
C420        C424   1.539       .  S
C420        C422   1.541       .  S
C420        H426   1.108       .  S
C421        H427   1.086       .  S
C421        C422   1.368       .  D
C422        C497   1.482       .  S
C423        H428   1.086       .  S
C423        C424   1.367       .  D
C424        C464   1.482       .  S
C429        C430   1.530       .  S
C429        C435   1.536       .  S
C429        C433   1.534       .  S
C429        C588   1.464       .  S
C430        H437   1.086       .  S
C430        C431   1.366       .  D
C431        C432   1.538       .  S
C431        C467   1.482       .  S
C432        C436   1.536       .  S
C432        C434   1.540       .  S
C432        H438   1.108       .  S
C433        H439   1.086       .  S
C433        C434   1.366       .  D
C434        C517   1.479       .  S
C435        H440   1.086       .  S
C435        C436   1.368       .  D
C436        C454   1.486       .  S
C441        C442   1.531       .  S
C441        C447   1.531       .  S
C441        C445   1.538       .  S
C441        C581   1.471       .  S
C442        H449   1.086       .  S
C442        C443   1.367       .  D
C443        C444   1.542       .  S
C443        C457   1.489       .  S
C444        C448   1.538       .  S
C444        C446   1.548       .  S
C444        H450   1.106       .  S
C445        H451   1.085       .  S
C445        C446   1.374       .  D
C446        C537   1.500       .  S
C447        H452   1.087       .  S
C447        C448   1.362       .  D
C448        C484   1.474       .  S
C453        C454   1.404       .  A
C453        C458   1.398       .  A
C453        H459   1.083       .  S
C454        C455   1.406       .  A
C455        C456   1.400       .  A
C455        H460   1.083       .  S
C456        C457   1.405       .  A
C456        H461   1.082       .  S
C457        C458   1.406       .  A
C458        H462   1.082       .  S
C463        C464   1.404       .  A
C463        C468   1.396       .  A
C463        H469   1.082       .  S
C464        C465   1.405       .  A
C465        C466   1.396       .  A
C465        H470   1.082       .  S
C466        C467   1.405       .  A
C466        H471   1.082       .  S
C467        C468   1.404       .  A
C468        H472   1.082       .  S
C473        C474   1.406       .  A
C473        C478   1.398       .  A
C473        H479   1.082       .  S
C474        C475   1.405       .  A
C475        C476   1.397       .  A
C475        H480   1.082       .  S
C476        C477   1.405       .  A
C476        H481   1.082       .  S
C477        C478   1.404       .  A
C478        H482   1.083       .  S
C483        C484   1.404       .  A
C483        C488   1.400       .  A
C483        H489   1.083       .  S
C484        C485   1.400       .  A
C485        C486   1.393       .  A
C485        H490   1.080       .  S
C486        C487   1.400       .  A
C486        H491   1.079       .  S
C487        C488   1.403       .  A
C488        H492   1.083       .  S
C493        C494   1.400       .  A
C493        C498   1.391       .  A
C493        H499   1.073       .  S
C494        C495   1.407       .  A
C495        C496   1.404       .  A
C495        H500   1.083       .  S
C496        C497   1.406       .  A
C496        H501   1.083       .  S
C497        C498   1.400       .  A
C498        H502   1.083       .  S
C503        C504   1.405       .  A
C503        C508   1.400       .  A
C503        H509   1.083       .  S
C504        C505   1.404       .  A
C505        C506   1.397       .  A
C505        H510   1.083       .  S
C506        C507   1.404       .  A
C506        H511   1.083       .  S
C507        C508   1.406       .  A
C508        H512   1.083       .  S
C513        C514   1.400       .  A
C513        C518   1.390       .  A
C513        H519   1.075       .  S
C514        C515   1.407       .  A
C515        C516   1.404       .  A
C515        H520   1.083       .  S
C516        C517   1.406       .  A
C516        H521   1.083       .  S
C517        C518   1.400       .  A
C518        H522   1.083       .  S
C523        C524   1.406       .  A
C523        C528   1.400       .  A
C523        H529   1.082       .  S
C524        C525   1.402       .  A
C525        C526   1.392       .  A
C525        H530   1.082       .  S
C526        C527   1.404       .  A
C526        H531   1.074       .  S
C527        C528   1.409       .  A
C528        H532   1.082       .  S
C533        C534   1.405       .  A
C533        C538   1.392       .  A
C533        H539   1.076       .  S
C534        C535   1.410       .  A
C535        C536   1.406       .  A
C535        H540   1.081       .  S
C536        C537   1.410       .  A
C536        H541   1.081       .  S
C537        C538   1.404       .  A
C538        H542   1.077       .  S
C543        C544   1.401       .  A
C543        C548   1.392       .  A
C543        H549   1.082       .  S
C544        C545   1.406       .  A
C545        C546   1.400       .  A
C545        H550   1.082       .  S
C546        C547   1.409       .  A
C546        H551   1.082       .  S
C547        C548   1.403       .  A
C548        H552   1.073       .  S
C553        C554   1.409       .  A
C553        C558   1.405       .  A
C553        H559   1.081       .  S
C554        C555   1.405       .  A
C555        C556   1.391       .  A
C555        H560   1.076       .  S
C556        C557   1.404       .  A
C556        H561   1.076       .  S
C557        C558   1.409       .  A
C558        H562   1.081       .  S
C563        C564   1.400       .  A
C563        C568   1.392       .  A
C563        H569   1.079       .  S
C564        C565   1.404       .  A
C565        C566   1.401       .  A
C565        H570   1.083       .  S
C566        C567   1.405       .  A
C566        H571   1.083       .  S
C567        C568   1.400       .  A
C568        H572   1.080       .  S
C573        C574   1.205       .  T
C575        C576   1.204       .  T
C577        C578   1.205       .  T
C579        C580   1.206       .  T
C581        C582   1.208       .  T
C583        C584   1.204       .  T
C585        C586   1.205       .  T
C587        C588   1.204       .  T
O589       Zr601   2.449       .  S
O589        C591   1.288       .  A
O590        C591   1.284       .  A
C591        C876   1.436       .  S
O592      Zr1780   2.445       .  S
O592        C594   1.287       .  A
O593       Zr922   2.418       .  S
O593        C594   1.284       .  A
C594        C869   1.433       .  S
O595       Zr604   2.445       .  S
O595        C597   1.287       .  A
O596        C597   1.284       .  A
C597        C881   1.434       .  S
O598      Zr1777   2.444       .  S
O598        C600   1.287       .  A
O599       Zr628   2.414       .  S
O599        C600   1.283       .  A
C600        C880   1.432       .  S
Zr601      O1774   2.445       .  S
Zr601       O602   2.433       .  S
Zr601      O1779   2.434       .  S
Zr601       O901   2.372       .  S
Zr601      O2078   2.370       .  S
Zr601      O1807   2.371       .  S
O602        H645   0.990       .  S
O603      Zr1777   2.435       .  S
O603       H1820   0.990   1_455  S
O603        H648   0.990   1_455  S
Zr604      O1768   2.446       .  S
Zr604       O605   2.435       .  S
Zr604      O1782   2.436       .  S
Zr604      O1784   2.370   1_554  S
Zr604       O607   2.373   1_554  S
Zr604      O1810   2.376       .  S
O605       H1822   0.990       .  S
O605        H649   0.990       .  S
O606      Zr1780   2.436       .  S
O606       H1815   0.990       .  S
O607       Zr895   2.374       .  S
O608      Zr2071   2.369       .  S
O608      Zr1780   2.371   1_556  S
O608       Zr922   2.382   1_556  S
O608        H635   0.965       .  S
O609       Zr621   2.447       .  S
O609        C611   1.288       .  A
O610        C611   1.283       .  A
C611        C867   1.433       .  S
O612      Zr1800   2.442       .  S
O612        C614   1.287       .  A
O613       Zr627   2.420   1_554  S
O613        C614   1.284       .  A
C614        C872   1.433       .  S
O615       Zr624   2.446       .  S
O615        C617   1.287       .  A
O616        C617   1.284       .  A
C617        C873   1.436       .  S
O618      Zr1797   2.446       .  S
O618        C620   1.287       .  A
O619       Zr921   2.418       .  S
O619        C620   1.283       .  A
C620        C877   1.433       .  S
Zr621      O1794   2.444   1_455  S
Zr621      O1798   2.435       .  S
Zr621      O1799   2.433       .  S
Zr621       O629   2.369       .  S
Zr621      O1806   2.372   1_455  S
Zr621      O1809   2.371   1_455  S
O622      Zr1797   2.437       .  S
O622       H1818   0.990       .  S
O622        H647   0.990       .  S
O623      Zr1797   2.433       .  S
O623       H1819   0.990       .  S
Zr624      O1788   2.442   1_455  S
Zr624       O625   2.435       .  S
Zr624      O1802   2.435       .  S
Zr624      O2100   2.375   1_455  S
Zr624       O923   2.371       .  S
Zr624      O1808   2.371   1_455  S
O625       H1817   0.990       .  S
O626      Zr1800   2.434       .  S
O626       H1816   0.990       .  S
O626       H1826   0.990       .  S
Zr627       O913   2.418       .  S
Zr627       O924   2.380   1_556  S
Zr627       O632   2.385   1_556  S
Zr627       O927   2.384       .  S
Zr628       O887   2.420       .  S
Zr628       O902   2.382       .  S
Zr628       O631   2.382       .  S
Zr628       O928   2.381       .  S
O629       Zr918   2.370       .  S
O629        H637   0.966       .  S
O630      Zr1797   2.374       .  S
O630      Zr2094   2.376       .  S
O630       Zr921   2.382       .  S
O631      Zr1777   2.372       .  S
O632      Zr1800   2.371       .  S
O632        H636   0.965       .  S
O633      Zr1797   2.372       .  S
O633       Zr921   2.384       .  S
O633        H638   0.966       .  S
O634      Zr1780   2.376       .  S
O634       Zr922   2.383       .  S
H639       O1782   0.990       .  S
H640       O1802   0.990       .  S
H641       O1801   0.990       .  S
H642       O1798   0.990       .  S
H643       O1799   0.990       .  S
H644       O1779   0.990       .  S
H646       O1781   0.990       .  S
H650       O1802   0.990       .  S
C651        C652   1.530       .  S
C651        C657   1.532       .  S
C651        C655   1.540       .  S
C651        C868   1.465       .  S
C652        H659   1.086       .  S
C652        C653   1.365       .  D
C653        C654   1.541       .  S
C653        C838   1.484       .  S
C654        C658   1.535       .  S
C654        C656   1.545       .  S
C654        H660   1.105       .  S
C655        H661   1.085       .  S
C655        C656   1.374       .  D
C656        C848   1.498       .  S
C657        H662   1.086       .  S
C657        C658   1.361       .  D
C658        C858   1.476       .  S
C663        C664   1.531       .  S
C663        C669   1.530       .  S
C663        C667   1.539       .  S
C663        C879   1.464       .  S
C664        H671   1.087       .  S
C664        C665   1.361       .  D
C665        C666   1.536       .  S
C665        C861   1.475       .  S
C666        C670   1.540       .  S
C666        C668   1.546       .  S
C666        H672   1.105       .  S
C667        H673   1.085       .  S
C667        C668   1.374       .  D
C668        C828   1.500       .  S
C669        H674   1.086       .  S
C669        C670   1.365       .  D
C670        C818   1.484       .  S
C675        C676   1.533       .  S
C675        C681   1.533       .  S
C675        C679   1.532       .  S
C675        C870   1.466       .  S
C676        H683   1.086       .  S
C676        C677   1.368       .  D
C677        C678   1.542       .  S
C677        C821   1.492       .  S
C678        C682   1.539       .  S
C678        C680   1.544       .  S
C678        H684   1.107       .  S
C679        H685   1.086       .  S
C679        C680   1.366       .  D
C680        C808   1.484       .  S
C681        H686   1.086       .  S
C681        C682   1.367       .  D
C682        C798   1.483       .  S
C687        C688   1.532       .  S
C687        C693   1.531       .  S
C687        C691   1.534       .  S
C687        C874   1.469       .  S
C688        H695   1.086       .  S
C688        C689   1.367       .  D
C689        C690   1.541       .  S
C689        C801   1.485       .  S
C690        C694   1.544       .  S
C690        C692   1.545       .  S
C690        H696   1.107       .  S
C691        H697   1.086       .  S
C691        C692   1.368       .  D
C692        C788   1.488       .  S
C693        H698   1.085       .  S
C693        C694   1.368       .  D
C694        C841   1.493       .  S
C699        C700   1.531       .  S
C699        C705   1.529       .  S
C699        C703   1.537       .  S
C699        C878   1.465       .  S
C700        H707   1.087       .  S
C700        C701   1.361       .  D
C701        C702   1.537       .  S
C701        C781   1.475       .  S
C702        C706   1.542       .  S
C702        C704   1.547       .  S
C702        H708   1.105       .  S
C703        H709   1.085       .  S
C703        C704   1.373       .  D
C704        C851   1.498       .  S
C705        H710   1.086       .  S
C705        C706   1.366       .  D
C706        C768   1.485       .  S
C711        C712   1.531       .  S
C711        C717   1.531       .  S
C711        C715   1.536       .  S
C711        C871   1.466       .  S
C712        H719   1.086       .  S
C712        C713   1.366       .  D
C713        C714   1.538       .  S
C713        C771   1.483       .  S
C714        C718   1.539       .  S
C714        C716   1.541       .  S
C714        H720   1.108       .  S
C715        H721   1.086       .  S
C715        C716   1.368       .  D
C716        C791   1.483       .  S
C717        H722   1.086       .  S
C717        C718   1.366       .  D
C718        C758   1.482       .  S
C723        C724   1.531       .  S
C723        C729   1.535       .  S
C723        C727   1.535       .  S
C723        C882   1.467       .  S
C724        H731   1.086       .  S
C724        C725   1.367       .  D
C725        C726   1.538       .  S
C725        C761   1.482       .  S
C726        C730   1.536       .  S
C726        C728   1.539       .  S
C726        H732   1.108       .  S
C727        H733   1.086       .  S
C727        C728   1.367       .  D
C728        C811   1.479       .  S
C729        H734   1.086       .  S
C729        C730   1.368       .  D
C730        C748   1.486       .  S
C735        C736   1.530       .  S
C735        C741   1.531       .  S
C735        C739   1.538       .  S
C735        C875   1.469       .  S
C736        H743   1.086       .  S
C736        C737   1.367       .  D
C737        C738   1.542       .  S
C737        C751   1.489       .  S
C738        C742   1.538       .  S
C738        C740   1.548       .  S
C738        H744   1.105       .  S
C739        H745   1.085       .  S
C739        C740   1.374       .  D
C740        C831   1.499       .  S
C741        H746   1.087       .  S
C741        C742   1.362       .  D
C742        C778   1.476       .  S
C747        C748   1.404       .  A
C747        C752   1.398       .  A
C747        H753   1.083       .  S
C748        C749   1.406       .  A
C749        C750   1.400       .  A
C749        H754   1.083       .  S
C750        C751   1.406       .  A
C750        H755   1.082       .  S
C751        C752   1.406       .  A
C752        H756   1.082       .  S
C757        C758   1.404       .  A
C757        C762   1.396       .  A
C757        H763   1.083       .  S
C758        C759   1.405       .  A
C759        C760   1.396       .  A
C759        H764   1.082       .  S
C760        C761   1.405       .  A
C760        H765   1.082       .  S
C761        C762   1.404       .  A
C762        H766   1.082       .  S
C767        C768   1.405       .  A
C767        C772   1.397       .  A
C767        H773   1.082       .  S
C768        C769   1.405       .  A
C769        C770   1.396       .  A
C769        H774   1.082       .  S
C770        C771   1.405       .  A
C770        H775   1.083       .  S
C771        C772   1.404       .  A
C772        H776   1.083       .  S
C777        C778   1.404       .  A
C777        C782   1.400       .  A
C777        H783   1.083       .  S
C778        C779   1.400       .  A
C779        C780   1.394       .  A
C779        H784   1.079       .  S
C780        C781   1.400       .  A
C780        H785   1.079       .  S
C781        C782   1.404       .  A
C782        H786   1.083       .  S
C787        C788   1.401       .  A
C787        C792   1.391       .  A
C787        H793   1.074       .  S
C788        C789   1.407       .  A
C789        C790   1.404       .  A
C789        H794   1.083       .  S
C790        C791   1.406       .  A
C790        H795   1.083       .  S
C791        C792   1.401       .  A
C792        H796   1.083       .  S
C797        C798   1.405       .  A
C797        C802   1.399       .  A
C797        H803   1.083       .  S
C798        C799   1.404       .  A
C799        C800   1.396       .  A
C799        H804   1.083       .  S
C800        C801   1.404       .  A
C800        H805   1.083       .  S
C801        C802   1.406       .  A
C802        H806   1.083       .  S
C807        C808   1.400       .  A
C807        C812   1.390       .  A
C807        H813   1.075       .  S
C808        C809   1.407       .  A
C809        C810   1.404       .  A
C809        H814   1.083       .  S
C810        C811   1.406       .  A
C810        H815   1.083       .  S
C811        C812   1.400       .  A
C812        H816   1.083       .  S
C817        C818   1.405       .  A
C817        C822   1.399       .  A
C817        H823   1.082       .  S
C818        C819   1.401       .  A
C819        C820   1.392       .  A
C819        H824   1.082       .  S
C820        C821   1.404       .  A
C820        H825   1.074       .  S
C821        C822   1.408       .  A
C822        H826   1.082       .  S
C827        C828   1.404       .  A
C827        C832   1.391       .  A
C827        H833   1.076       .  S
C828        C829   1.410       .  A
C829        C830   1.405       .  A
C829        H834   1.081       .  S
C830        C831   1.409       .  A
C830        H835   1.082       .  S
C831        C832   1.404       .  A
C832        H836   1.076       .  S
C837        C838   1.401       .  A
C837        C842   1.392       .  A
C837        H843   1.082       .  S
C838        C839   1.405       .  A
C839        C840   1.399       .  A
C839        H844   1.082       .  S
C840        C841   1.409       .  A
C840        H845   1.082       .  S
C841        C842   1.404       .  A
C842        H846   1.073       .  S
C847        C848   1.409       .  A
C847        C852   1.405       .  A
C847        H853   1.081       .  S
C848        C849   1.404       .  A
C849        C850   1.391       .  A
C849        H854   1.076       .  S
C850        C851   1.404       .  A
C850        H855   1.076       .  S
C851        C852   1.409       .  A
C852        H856   1.081       .  S
C857        C858   1.400       .  A
C857        C862   1.392       .  A
C857        H863   1.079       .  S
C858        C859   1.404       .  A
C859        C860   1.401       .  A
C859        H864   1.083       .  S
C860        C861   1.404       .  A
C860        H865   1.083       .  S
C861        C862   1.400       .  A
C862        H866   1.079       .  S
C867        C868   1.205       .  T
C869        C870   1.205       .  T
C871        C872   1.205       .  T
C873        C874   1.206       .  T
C875        C876   1.207       .  T
C877        C878   1.205       .  T
C879        C880   1.204       .  T
C881        C882   1.206       .  T
O883       Zr895   2.450       .  S
O883        C885   1.288       .  A
O884        C885   1.285       .  A
C885       C1170   1.438       .  S
O886      Zr2074   2.444       .  S
O886        C888   1.287       .  A
O887        C888   1.284       .  A
C888       C1163   1.434       .  S
O889       Zr898   2.441       .  S
O889        C891   1.287       .  A
O890        C891   1.284       .  A
C891       C1175   1.433       .  S
O892      Zr2071   2.446       .  S
O892        C894   1.288       .  A
O893       Zr922   2.420   1_556  S
O893        C894   1.284       .  A
C894       C1174   1.435       .  S
Zr895      O2068   2.449       .  S
Zr895       O896   2.433       .  S
Zr895      O2073   2.436       .  S
Zr895      O1784   2.373       .  S
Zr895      O2101   2.372       .  S
O896        H939   0.990       .  S
O897      Zr2071   2.434       .  S
O897       H2114   0.990   1_455  S
O897        H942   0.990       .  S
Zr898      O2062   2.446       .  S
Zr898       O899   2.436       .  S
Zr898      O2076   2.435       .  S
Zr898      O2078   2.370       .  S
Zr898       O901   2.371       .  S
Zr898      O2104   2.376       .  S
O899       H2116   0.990       .  S
O899        H943   0.990       .  S
O900      Zr2074   2.436       .  S
O900       H2109   0.990       .  S
O902      Zr1777   2.371       .  S
O902      Zr2074   2.369       .  S
O902        H929   0.965       .  S
O903       Zr915   2.442       .  S
O903        C905   1.287       .  A
O904        C905   1.283       .  A
C905       C1161   1.431       .  S
O906      Zr2094   2.443       .  S
O906        C908   1.287       .  A
O907       Zr921   2.422       .  S
O907        C908   1.284       .  A
C908       C1166   1.433       .  S
O909       Zr918   2.446       .  S
O909        C911   1.287       .  A
O910        C911   1.284       .  A
C911       C1167   1.434       .  S
O912      Zr2091   2.443       .  S
O912        C914   1.287       .  A
O913        C914   1.283       .  A
C914       C1171   1.433       .  S
Zr915      O2088   2.443   1_455  S
Zr915      O2092   2.436       .  S
Zr915      O2093   2.433       .  S
Zr915       O923   2.370   1_556  S
Zr915      O2100   2.372   1_456  S
Zr915      O2103   2.373   1_455  S
O916      Zr2091   2.437       .  S
O916       H2112   0.990       .  S
O916        H941   0.990       .  S
O917      Zr2091   2.433       .  S
O917       H2113   0.990       .  S
Zr918      O2082   2.444   1_455  S
Zr918       O919   2.433       .  S
Zr918      O2096   2.436       .  S
Zr918      O1806   2.375   1_455  S
Zr918      O2102   2.372   1_455  S
O919       H2111   0.990   1_455  S
O920      Zr2094   2.434       .  S
O920       H2110   0.990       .  S
O920       H2120   0.990       .  S
Zr921       O926   2.383       .  S
Zr922       O925   2.380   1_554  S
O923        H931   0.966       .  S
O924      Zr2091   2.371   1_554  S
O924      Zr1800   2.373       .  S
O925      Zr2071   2.371       .  S
O926      Zr2094   2.370       .  S
O926        H930   0.964       .  S
O927      Zr2091   2.373       .  S
O927        H932   0.966       .  S
O928      Zr2074   2.375       .  S
H933       O2076   0.990       .  S
H934       O2096   0.990       .  S
H935       O2095   0.990       .  S
H936       O2092   0.990       .  S
H937       O2093   0.990       .  S
H938       O2073   0.990       .  S
H940       O2075   0.990       .  S
H944       O2096   0.990       .  S
C945        C946   1.529       .  S
C945        C951   1.532       .  S
C945        C949   1.540       .  S
C945       C1162   1.464       .  S
C946        H953   1.086       .  S
C946        C947   1.365       .  D
C947        C948   1.541       .  S
C947       C1132   1.485       .  S
C948        C952   1.537       .  S
C948        C950   1.546       .  S
C948        H954   1.105       .  S
C949        H955   1.085       .  S
C949        C950   1.374       .  D
C950       C1142   1.501       .  S
C951        H956   1.087       .  S
C951        C952   1.361       .  D
C952       C1152   1.477       .  S
C957        C958   1.531       .  S
C957        C963   1.530       .  S
C957        C961   1.540       .  S
C957       C1173   1.468       .  S
C958        H965   1.086       .  S
C958        C959   1.361       .  D
C959        C960   1.537       .  S
C959       C1155   1.477       .  S
C960        C964   1.540       .  S
C960        C962   1.545       .  S
C960        H966   1.105       .  S
C961        H967   1.085       .  S
C961        C962   1.374       .  D
C962       C1122   1.500       .  S
C963        H968   1.086       .  S
C963        C964   1.366       .  D
C964       C1112   1.483       .  S
C969        C970   1.532       .  S
C969        C975   1.534       .  S
C969        C973   1.531       .  S
C969       C1164   1.467       .  S
C970        H977   1.085       .  S
C970        C971   1.368       .  D
C971        C972   1.542       .  S
C971       C1115   1.491       .  S
C972        C976   1.540       .  S
C972        C974   1.544       .  S
C972        H978   1.107       .  S
C973        H979   1.086       .  S
C973        C974   1.366       .  D
C974       C1102   1.483       .  S
C975        H980   1.086       .  S
C975        C976   1.368       .  D
C976       C1092   1.485       .  S
C981        C982   1.532       .  S
C981        C987   1.532       .  S
C981        C985   1.533       .  S
C981       C1168   1.467       .  S
C982        H989   1.086       .  S
C982        C983   1.367       .  D
C983        C984   1.542       .  S
C983       C1095   1.485       .  S
C984        C988   1.544       .  S
C984        C986   1.546       .  S
C984        H990   1.107       .  S
C985        H991   1.086       .  S
C985        C986   1.367       .  D
C986       C1082   1.487       .  S
C987        H992   1.086       .  S
C987        C988   1.368       .  D
C988       C1135   1.493       .  S
C993        C994   1.531       .  S
C993        C999   1.530       .  S
C993        C997   1.538       .  S
C993       C1172   1.466       .  S
C994       H1001   1.087       .  S
C994        C995   1.361       .  D
C995        C996   1.537       .  S
C995       C1075   1.474       .  S
C996       C1000   1.542       .  S
C996        C998   1.548       .  S
C996       H1002   1.105       .  S
C997       H1003   1.085       .  S
C997        C998   1.373       .  D
C998       C1145   1.500       .  S
C999       H1004   1.086       .  S
C999       C1000   1.366       .  D
C1000      C1062   1.488       .  S
C1005      C1006   1.533       .  S
C1005      C1011   1.530       .  S
C1005      C1009   1.535       .  S
C1005      C1165   1.466       .  S
C1006      H1013   1.086       .  S
C1006      C1007   1.367       .  D
C1007      C1008   1.539       .  S
C1007      C1065   1.486       .  S
C1008      C1012   1.539       .  S
C1008      C1010   1.541       .  S
C1008      H1014   1.108       .  S
C1009      H1015   1.086       .  S
C1009      C1010   1.367       .  D
C1010      C1085   1.482       .  S
C1011      H1016   1.086       .  S
C1011      C1012   1.366       .  D
C1012      C1052   1.482       .  S
C1017      C1018   1.531       .  S
C1017      C1023   1.535       .  S
C1017      C1021   1.534       .  S
C1017      C1176   1.466       .  S
C1018      H1025   1.086       .  S
C1018      C1019   1.366       .  D
C1019      C1020   1.538       .  S
C1019      C1055   1.482       .  S
C1020      C1024   1.536       .  S
C1020      C1022   1.539       .  S
C1020      H1026   1.109       .  S
C1021      H1027   1.086       .  S
C1021      C1022   1.367       .  D
C1022      C1105   1.478       .  S
C1023      H1028   1.086       .  S
C1023      C1024   1.368       .  D
C1024      C1042   1.484       .  S
C1029      C1030   1.530       .  S
C1029      C1035   1.532       .  S
C1029      C1033   1.539       .  S
C1029      C1169   1.471       .  S
C1030      H1037   1.086       .  S
C1030      C1031   1.366       .  D
C1031      C1032   1.541       .  S
C1031      C1045   1.487       .  S
C1032      C1036   1.538       .  S
C1032      C1034   1.547       .  S
C1032      H1038   1.106       .  S
C1033      H1039   1.085       .  S
C1033      C1034   1.374       .  D
C1034      C1125   1.500       .  S
C1035      H1040   1.087       .  S
C1035      C1036   1.362       .  D
C1036      C1072   1.476       .  S
C1041      C1042   1.404       .  A
C1041      C1046   1.398       .  A
C1041      H1047   1.083       .  S
C1042      C1043   1.405       .  A
C1043      C1044   1.398       .  A
C1043      H1048   1.083       .  S
C1044      C1045   1.405       .  A
C1044      H1049   1.082       .  S
C1045      C1046   1.406       .  A
C1046      H1050   1.083       .  S
C1051      C1052   1.404       .  A
C1051      C1056   1.396       .  A
C1051      H1057   1.082       .  S
C1052      C1053   1.405       .  A
C1053      C1054   1.396       .  A
C1053      H1058   1.082       .  S
C1054      C1055   1.405       .  A
C1054      H1059   1.082       .  S
C1055      C1056   1.404       .  A
C1056      H1060   1.083       .  S
C1061      C1062   1.406       .  A
C1061      C1066   1.398       .  A
C1061      H1067   1.082       .  S
C1062      C1063   1.406       .  A
C1063      C1064   1.398       .  A
C1063      H1068   1.082       .  S
C1064      C1065   1.405       .  A
C1064      H1069   1.082       .  S
C1065      C1066   1.404       .  A
C1066      H1070   1.083       .  S
C1071      C1072   1.404       .  A
C1071      C1076   1.400       .  A
C1071      H1077   1.083       .  S
C1072      C1073   1.400       .  A
C1073      C1074   1.393       .  A
C1073      H1078   1.079       .  S
C1074      C1075   1.400       .  A
C1074      H1079   1.079       .  S
C1075      C1076   1.404       .  A
C1076      H1080   1.083       .  S
C1081      C1082   1.400       .  A
C1081      C1086   1.390       .  A
C1081      H1087   1.073       .  S
C1082      C1083   1.407       .  A
C1083      C1084   1.404       .  A
C1083      H1088   1.083       .  S
C1084      C1085   1.407       .  A
C1084      H1089   1.083       .  S
C1085      C1086   1.400       .  A
C1086      H1090   1.083       .  S
C1091      C1092   1.405       .  A
C1091      C1096   1.400       .  A
C1091      H1097   1.083       .  S
C1092      C1093   1.405       .  A
C1093      C1094   1.397       .  A
C1093      H1098   1.083       .  S
C1094      C1095   1.404       .  A
C1094      H1099   1.083       .  S
C1095      C1096   1.406       .  A
C1096      H1100   1.083       .  S
C1101      C1102   1.400       .  A
C1101      C1106   1.390       .  A
C1101      H1107   1.075       .  S
C1102      C1103   1.407       .  A
C1103      C1104   1.403       .  A
C1103      H1108   1.083       .  S
C1104      C1105   1.405       .  A
C1104      H1109   1.083       .  S
C1105      C1106   1.400       .  A
C1106      H1110   1.083       .  S
C1111      C1112   1.405       .  A
C1111      C1116   1.398       .  A
C1111      H1117   1.082       .  S
C1112      C1113   1.402       .  A
C1113      C1114   1.392       .  A
C1113      H1118   1.082       .  S
C1114      C1115   1.404       .  A
C1114      H1119   1.074       .  S
C1115      C1116   1.408       .  A
C1116      H1120   1.082       .  S
C1121      C1122   1.405       .  A
C1121      C1126   1.392       .  A
C1121      H1127   1.077       .  S
C1122      C1123   1.410       .  A
C1123      C1124   1.406       .  A
C1123      H1128   1.081       .  S
C1124      C1125   1.409       .  A
C1124      H1129   1.082       .  S
C1125      C1126   1.404       .  A
C1126      H1130   1.077       .  S
C1131      C1132   1.401       .  A
C1131      C1136   1.393       .  A
C1131      H1137   1.082       .  S
C1132      C1133   1.405       .  A
C1133      C1134   1.399       .  A
C1133      H1138   1.082       .  S
C1134      C1135   1.409       .  A
C1134      H1139   1.082       .  S
C1135      C1136   1.404       .  A
C1136      H1140   1.073       .  S
C1141      C1142   1.410       .  A
C1141      C1146   1.406       .  A
C1141      H1147   1.081       .  S
C1142      C1143   1.405       .  A
C1143      C1144   1.391       .  A
C1143      H1148   1.076       .  S
C1144      C1145   1.404       .  A
C1144      H1149   1.076       .  S
C1145      C1146   1.410       .  A
C1146      H1150   1.081       .  S
C1151      C1152   1.400       .  A
C1151      C1156   1.393       .  A
C1151      H1157   1.080       .  S
C1152      C1153   1.404       .  A
C1153      C1154   1.401       .  A
C1153      H1158   1.083       .  S
C1154      C1155   1.405       .  A
C1154      H1159   1.083       .  S
C1155      C1156   1.400       .  A
C1156      H1160   1.080       .  S
C1161      C1162   1.204       .  T
C1163      C1164   1.205       .  T
C1165      C1166   1.205       .  T
C1167      C1168   1.205       .  T
C1169      C1170   1.208       .  T
C1171      C1172   1.205       .  T
C1173      C1174   1.206       .  T
C1175      C1176   1.205       .  T
O1177     Zr1189   2.450   1_655  S
O1177      C1179   1.288       .  A
O1178     Zr2097   2.418       .  S
O1178      C1179   1.284       .  A
C1179      C1464   1.435       .  S
O1180      C1182   1.287       .  A
O1181     Zr1510   2.419       .  S
O1181      C1182   1.284       .  A
C1182      C1457   1.433       .  S
O1183     Zr1192   2.442   1_655  S
O1183      C1185   1.287       .  A
O1184     Zr1803   2.420   1_554  S
O1184      C1185   1.284       .  A
C1185      C1469   1.433       .  S
O1186      C1188   1.288       .  A
O1187     Zr1216   2.415       .  S
O1187      C1188   1.282       .  A
C1188      C1468   1.432       .  S
Zr1189     O1190   2.435       .  S
Zr1189     O1489   2.372   1_455  S
Zr1189     O1809   2.372   1_455  S
O1190      H1233   0.990   1_455  S
O1191      H1236   0.990       .  S
Zr1192     O1193   2.435       .  S
Zr1192     O1195   2.373   1_454  S
Zr1192     O1808   2.372   1_455  S
O1193      H1237   0.990       .  S
O1195     Zr1483   2.374   1_655  S
O1195     Zr1803   2.381       .  S
O1196     Zr1510   2.384   1_556  S
O1196      H1223   0.965       .  S
O1197     Zr1209   2.446       .  S
O1197      C1199   1.287       .  A
O1198     Zr1804   2.415   1_545  S
O1198      C1199   1.283       .  A
C1199      C1455   1.432       .  S
O1200      C1202   1.286       .  A
O1201     Zr1215   2.419   1_544  S
O1201      C1202   1.284       .  A
C1202      C1460   1.431       .  S
O1203     Zr1212   2.445       .  S
O1203      C1205   1.287       .  A
O1204     Zr2098   2.422   1_545  S
O1204      C1205   1.284       .  A
C1205      C1461   1.434       .  S
O1206      C1208   1.287       .  A
O1207     Zr1509   2.421   1_545  S
O1207      C1208   1.284       .  A
C1208      C1465   1.433       .  S
Zr1209     O1217   2.368       .  S
Zr1209     O1807   2.373   1_545  S
O1210      H1235   0.990       .  S
Zr1212     O1213   2.434       .  S
Zr1212     O1511   2.371       .  S
Zr1212     O1810   2.373   1_545  S
Zr1215     O2060   2.424       .  S
Zr1215     O1772   2.424   1_556  S
Zr1215     O1501   2.418   1_565  S
Zr1215     O1783   2.377       .  S
Zr1215     O1512   2.381   1_566  S
Zr1215     O1220   2.386   1_556  S
Zr1215     O1515   2.383       .  S
Zr1216     O1475   2.421       .  S
Zr1216     O1786   2.412       .  S
Zr1216     O2086   2.421       .  S
Zr1216     O1490   2.385       .  S
Zr1216     O1805   2.384       .  S
Zr1216     O1219   2.382       .  S
Zr1216     O1516   2.380       .  S
O1217     Zr1506   2.369       .  S
O1217     Zr1804   2.381   1_545  S
O1217      H1225   0.966       .  S
O1218     Zr1509   2.382   1_545  S
O1219     Zr1797   2.373       .  S
O1220     Zr1780   2.372   1_655  S
O1220      H1224   0.965       .  S
O1221     Zr1777   2.371   1_655  S
O1221     Zr1509   2.383       .  S
O1221      H1226   0.966       .  S
O1222     Zr1800   2.373       .  S
O1222     Zr1510   2.382       .  S
C1239      C1240   1.530       .  S
C1239      C1245   1.532       .  S
C1239      C1243   1.540       .  S
C1239      C1456   1.465       .  S
C1240      H1247   1.086       .  S
C1240      C1241   1.365       .  D
C1241      C1242   1.540       .  S
C1241      C1426   1.485       .  S
C1242      C1246   1.536       .  S
C1242      C1244   1.545       .  S
C1242      H1248   1.105       .  S
C1243      H1249   1.085       .  S
C1243      C1244   1.374       .  D
C1244      C1436   1.500       .  S
C1245      H1250   1.086       .  S
C1245      C1246   1.361       .  D
C1246      C1446   1.477       .  S
C1251      C1252   1.530       .  S
C1251      C1257   1.530       .  S
C1251      C1255   1.539       .  S
C1251      C1467   1.465       .  S
C1252      H1259   1.087       .  S
C1252      C1253   1.361       .  D
C1253      C1254   1.537       .  S
C1253      C1449   1.476       .  S
C1254      C1258   1.541       .  S
C1254      C1256   1.546       .  S
C1254      H1260   1.105       .  S
C1255      H1261   1.085       .  S
C1255      C1256   1.374       .  D
C1256      C1416   1.500       .  S
C1257      H1262   1.086       .  S
C1257      C1258   1.365       .  D
C1258      C1406   1.485       .  S
C1263      C1264   1.533       .  S
C1263      C1269   1.533       .  S
C1263      C1267   1.532       .  S
C1263      C1458   1.466       .  S
C1264      H1271   1.086       .  S
C1264      C1265   1.368       .  D
C1265      C1266   1.542       .  S
C1265      C1409   1.493       .  S
C1266      C1270   1.540       .  S
C1266      C1268   1.544       .  S
C1266      H1272   1.107       .  S
C1267      H1273   1.086       .  S
C1267      C1268   1.366       .  D
C1268      C1396   1.483       .  S
C1269      H1274   1.086       .  S
C1269      C1270   1.367       .  D
C1270      C1386   1.484       .  S
C1275      C1276   1.531       .  S
C1275      C1281   1.532       .  S
C1275      C1279   1.534       .  S
C1275      C1462   1.468       .  S
C1276      H1283   1.086       .  S
C1276      C1277   1.366       .  D
C1277      C1278   1.541       .  S
C1277      C1389   1.485       .  S
C1278      C1282   1.544       .  S
C1278      C1280   1.546       .  S
C1278      H1284   1.107       .  S
C1279      H1285   1.086       .  S
C1279      C1280   1.368       .  D
C1280      C1376   1.488       .  S
C1281      H1286   1.085       .  S
C1281      C1282   1.368       .  D
C1282      C1429   1.493       .  S
C1287      C1288   1.531       .  S
C1287      C1293   1.530       .  S
C1287      C1291   1.538       .  S
C1287      C1466   1.466       .  S
C1288      H1295   1.087       .  S
C1288      C1289   1.361       .  D
C1289      C1290   1.537       .  S
C1289      C1369   1.474       .  S
C1290      C1294   1.541       .  S
C1290      C1292   1.547       .  S
C1290      H1296   1.105       .  S
C1291      H1297   1.085       .  S
C1291      C1292   1.373       .  D
C1292      C1439   1.499       .  S
C1293      H1298   1.086       .  S
C1293      C1294   1.366       .  D
C1294      C1356   1.486       .  S
C1299      C1300   1.531       .  S
C1299      C1305   1.530       .  S
C1299      C1303   1.535       .  S
C1299      C1459   1.463       .  S
C1300      H1307   1.086       .  S
C1300      C1301   1.366       .  D
C1301      C1302   1.539       .  S
C1301      C1359   1.484       .  S
C1302      C1306   1.540       .  S
C1302      C1304   1.541       .  S
C1302      H1308   1.108       .  S
C1303      H1309   1.086       .  S
C1303      C1304   1.368       .  D
C1304      C1379   1.482       .  S
C1305      H1310   1.086       .  S
C1305      C1306   1.365       .  D
C1306      C1346   1.481       .  S
C1311      C1312   1.531       .  S
C1311      C1317   1.534       .  S
C1311      C1315   1.534       .  S
C1311      C1470   1.466       .  S
C1312      H1319   1.086       .  S
C1312      C1313   1.366       .  D
C1313      C1314   1.538       .  S
C1313      C1349   1.480       .  S
C1314      C1318   1.536       .  S
C1314      C1316   1.539       .  S
C1314      H1320   1.109       .  S
C1315      H1321   1.086       .  S
C1315      C1316   1.367       .  D
C1316      C1399   1.479       .  S
C1317      H1322   1.086       .  S
C1317      C1318   1.368       .  D
C1318      C1336   1.485       .  S
C1323      C1324   1.530       .  S
C1323      C1329   1.531       .  S
C1323      C1327   1.537       .  S
C1323      C1463   1.468       .  S
C1324      H1331   1.086       .  S
C1324      C1325   1.367       .  D
C1325      C1326   1.541       .  S
C1325      C1339   1.488       .  S
C1326      C1330   1.537       .  S
C1326      C1328   1.548       .  S
C1326      H1332   1.105       .  S
C1327      H1333   1.085       .  S
C1327      C1328   1.373       .  D
C1328      C1419   1.499       .  S
C1329      H1334   1.087       .  S
C1329      C1330   1.362       .  D
C1330      C1366   1.474       .  S
C1335      C1336   1.403       .  A
C1335      C1340   1.397       .  A
C1335      H1341   1.083       .  S
C1336      C1337   1.406       .  A
C1337      C1338   1.400       .  A
C1337      H1342   1.083       .  S
C1338      C1339   1.406       .  A
C1338      H1343   1.082       .  S
C1339      C1340   1.405       .  A
C1340      H1344   1.082       .  S
C1345      C1346   1.403       .  A
C1345      C1350   1.395       .  A
C1345      H1351   1.082       .  S
C1346      C1347   1.405       .  A
C1347      C1348   1.397       .  A
C1347      H1352   1.083       .  S
C1348      C1349   1.405       .  A
C1348      H1353   1.083       .  S
C1349      C1350   1.403       .  A
C1350      H1354   1.082       .  S
C1355      C1356   1.405       .  A
C1355      C1360   1.397       .  A
C1355      H1361   1.082       .  S
C1356      C1357   1.405       .  A
C1357      C1358   1.397       .  A
C1357      H1362   1.082       .  S
C1358      C1359   1.405       .  A
C1358      H1363   1.083       .  S
C1359      C1360   1.404       .  A
C1360      H1364   1.083       .  S
C1365      C1366   1.404       .  A
C1365      C1370   1.400       .  A
C1365      H1371   1.083       .  S
C1366      C1367   1.400       .  A
C1367      C1368   1.393       .  A
C1367      H1372   1.079       .  S
C1368      C1369   1.400       .  A
C1368      H1373   1.079       .  S
C1369      C1370   1.404       .  A
C1370      H1374   1.083       .  S
C1375      C1376   1.401       .  A
C1375      C1380   1.391       .  A
C1375      H1381   1.073       .  S
C1376      C1377   1.407       .  A
C1377      C1378   1.404       .  A
C1377      H1382   1.083       .  S
C1378      C1379   1.407       .  A
C1378      H1383   1.083       .  S
C1379      C1380   1.400       .  A
C1380      H1384   1.083       .  S
C1385      C1386   1.405       .  A
C1385      C1390   1.400       .  A
C1385      H1391   1.083       .  S
C1386      C1387   1.404       .  A
C1387      C1388   1.397       .  A
C1387      H1392   1.083       .  S
C1388      C1389   1.404       .  A
C1388      H1393   1.083       .  S
C1389      C1390   1.406       .  A
C1390      H1394   1.083       .  S
C1395      C1396   1.400       .  A
C1395      C1400   1.391       .  A
C1395      H1401   1.075       .  S
C1396      C1397   1.407       .  A
C1397      C1398   1.403       .  A
C1397      H1402   1.083       .  S
C1398      C1399   1.405       .  A
C1398      H1403   1.083       .  S
C1399      C1400   1.400       .  A
C1400      H1404   1.083       .  S
C1405      C1406   1.406       .  A
C1405      C1410   1.400       .  A
C1405      H1411   1.082       .  S
C1406      C1407   1.401       .  A
C1407      C1408   1.393       .  A
C1407      H1412   1.082       .  S
C1408      C1409   1.405       .  A
C1408      H1413   1.074       .  S
C1409      C1410   1.408       .  A
C1410      H1414   1.082       .  S
C1415      C1416   1.404       .  A
C1415      C1420   1.391       .  A
C1415      H1421   1.077       .  S
C1416      C1417   1.410       .  A
C1417      C1418   1.405       .  A
C1417      H1422   1.081       .  S
C1418      C1419   1.409       .  A
C1418      H1423   1.081       .  S
C1419      C1420   1.404       .  A
C1420      H1424   1.076       .  S
C1425      C1426   1.401       .  A
C1425      C1430   1.392       .  A
C1425      H1431   1.082       .  S
C1426      C1427   1.405       .  A
C1427      C1428   1.399       .  A
C1427      H1432   1.082       .  S
C1428      C1429   1.409       .  A
C1428      H1433   1.082       .  S
C1429      C1430   1.404       .  A
C1430      H1434   1.073       .  S
C1435      C1436   1.410       .  A
C1435      C1440   1.406       .  A
C1435      H1441   1.081       .  S
C1436      C1437   1.404       .  A
C1437      C1438   1.391       .  A
C1437      H1442   1.076       .  S
C1438      C1439   1.404       .  A
C1438      H1443   1.076       .  S
C1439      C1440   1.410       .  A
C1440      H1444   1.082       .  S
C1445      C1446   1.400       .  A
C1445      C1450   1.392       .  A
C1445      H1451   1.080       .  S
C1446      C1447   1.405       .  A
C1447      C1448   1.402       .  A
C1447      H1452   1.083       .  S
C1448      C1449   1.405       .  A
C1448      H1453   1.083       .  S
C1449      C1450   1.400       .  A
C1450      H1454   1.080       .  S
C1455      C1456   1.205       .  T
C1457      C1458   1.205       .  T
C1459      C1460   1.203       .  T
C1461      C1462   1.206       .  T
C1463      C1464   1.206       .  T
C1465      C1466   1.205       .  T
C1467      C1468   1.204       .  T
C1469      C1470   1.205       .  T
O1471     Zr1483   2.450   1_655  S
O1471      C1473   1.288       .  A
O1472     Zr1803   2.421       .  S
O1472      C1473   1.284       .  A
C1473      C1758   1.437       .  S
O1474      C1476   1.286       .  A
O1475      C1476   1.284       .  A
C1476      C1751   1.434       .  S
O1477     Zr1486   2.443   1_655  S
O1477      C1479   1.287       .  A
O1478     Zr2097   2.419       .  S
O1478      C1479   1.284       .  A
C1479      C1763   1.433       .  S
O1480      C1482   1.288       .  A
O1481     Zr1510   2.416   1_556  S
O1481      C1482   1.283       .  A
C1482      C1762   1.433       .  S
Zr1483     O1484   2.434       .  S
Zr1483     O2103   2.374   1_455  S
O1484      H1527   0.990       .  S
O1485      H1530   0.990       .  S
Zr1486     O1487   2.436       .  S
Zr1486     O1489   2.372   1_455  S
Zr1486     O2102   2.373   1_455  S
O1487      H1531   0.990       .  S
O1489     Zr2097   2.380       .  S
O1490      H1517   0.965       .  S
O1491     Zr1503   2.447       .  S
O1491      C1493   1.288       .  A
O1492     Zr2098   2.417   1_546  S
O1492      C1493   1.283       .  A
C1493      C1749   1.432       .  S
O1494      C1496   1.287       .  A
O1495     Zr1509   2.417   1_545  S
O1495      C1496   1.283       .  A
C1496      C1754   1.432       .  S
O1497     Zr1506   2.446       .  S
O1497      C1499   1.287       .  A
O1498     Zr1804   2.415   1_545  S
O1498      C1499   1.283       .  A
C1499      C1755   1.433       .  S
O1500      C1502   1.288       .  A
O1501      C1502   1.283       .  A
C1502      C1759   1.433       .  S
Zr1503     O1511   2.370   1_556  S
Zr1503     O2101   2.372   1_545  S
O1504      H1529   0.990       .  S
Zr1506     O1507   2.433       .  S
Zr1506     O2104   2.374   1_545  S
Zr1509     O1766   2.423       .  S
Zr1509     O2066   2.422       .  S
Zr1509     O2077   2.379       .  S
Zr1509     O1514   2.387       .  S
Zr1510     O2080   2.417   1_554  S
Zr1510     O1792   2.421       .  S
Zr1510     O2099   2.382       .  S
Zr1510     O1513   2.382   1_554  S
O1511     Zr2098   2.383   1_545  S
O1511      H1519   0.966       .  S
O1513     Zr2091   2.374       .  S
O1514     Zr2074   2.373   1_655  S
O1514      H1518   0.965       .  S
O1515     Zr2071   2.371   1_655  S
O1515      H1520   0.966       .  S
O1516     Zr2094   2.372       .  S
C1533      C1534   1.530       .  S
C1533      C1539   1.531       .  S
C1533      C1537   1.540       .  S
C1533      C1750   1.465       .  S
C1534      H1541   1.086       .  S
C1534      C1535   1.365       .  D
C1535      C1536   1.541       .  S
C1535      C1720   1.485       .  S
C1536      C1540   1.537       .  S
C1536      C1538   1.545       .  S
C1536      H1542   1.105       .  S
C1537      H1543   1.085       .  S
C1537      C1538   1.374       .  D
C1538      C1730   1.499       .  S
C1539      H1544   1.087       .  S
C1539      C1540   1.361       .  D
C1540      C1740   1.476       .  S
C1545      C1546   1.530       .  S
C1545      C1551   1.530       .  S
C1545      C1549   1.540       .  S
C1545      C1761   1.465       .  S
C1546      H1553   1.087       .  S
C1546      C1547   1.360       .  D
C1547      C1548   1.537       .  S
C1547      C1743   1.475       .  S
C1548      C1552   1.541       .  S
C1548      C1550   1.546       .  S
C1548      H1554   1.105       .  S
C1549      H1555   1.085       .  S
C1549      C1550   1.374       .  D
C1550      C1710   1.501       .  S
C1551      H1556   1.086       .  S
C1551      C1552   1.365       .  D
C1552      C1700   1.485       .  S
C1557      C1558   1.533       .  S
C1557      C1563   1.533       .  S
C1557      C1561   1.531       .  S
C1557      C1752   1.467       .  S
C1558      H1565   1.085       .  S
C1558      C1559   1.369       .  D
C1559      C1560   1.543       .  S
C1559      C1703   1.492       .  S
C1560      C1564   1.540       .  S
C1560      C1562   1.545       .  S
C1560      H1566   1.107       .  S
C1561      H1567   1.086       .  S
C1561      C1562   1.366       .  D
C1562      C1690   1.484       .  S
C1563      H1568   1.086       .  S
C1563      C1564   1.367       .  D
C1564      C1680   1.485       .  S
C1569      C1570   1.532       .  S
C1569      C1575   1.532       .  S
C1569      C1573   1.533       .  S
C1569      C1756   1.466       .  S
C1570      H1577   1.086       .  S
C1570      C1571   1.366       .  D
C1571      C1572   1.541       .  S
C1571      C1683   1.485       .  S
C1572      C1576   1.544       .  S
C1572      C1574   1.546       .  S
C1572      H1578   1.107       .  S
C1573      H1579   1.086       .  S
C1573      C1574   1.368       .  D
C1574      C1670   1.487       .  S
C1575      H1580   1.086       .  S
C1575      C1576   1.368       .  D
C1576      C1723   1.493       .  S
C1581      C1582   1.531       .  S
C1581      C1587   1.530       .  S
C1581      C1585   1.538       .  S
C1581      C1760   1.466       .  S
C1582      H1589   1.087       .  S
C1582      C1583   1.361       .  D
C1583      C1584   1.536       .  S
C1583      C1663   1.473       .  S
C1584      C1588   1.541       .  S
C1584      C1586   1.547       .  S
C1584      H1590   1.106       .  S
C1585      H1591   1.085       .  S
C1585      C1586   1.373       .  D
C1586      C1733   1.498       .  S
C1587      H1592   1.086       .  S
C1587      C1588   1.367       .  D
C1588      C1650   1.486       .  S
C1593      C1594   1.532       .  S
C1593      C1599   1.530       .  S
C1593      C1597   1.534       .  S
C1593      C1753   1.464       .  S
C1594      H1601   1.086       .  S
C1594      C1595   1.366       .  D
C1595      C1596   1.538       .  S
C1595      C1653   1.485       .  S
C1596      C1600   1.539       .  S
C1596      C1598   1.541       .  S
C1596      H1602   1.108       .  S
C1597      H1603   1.086       .  S
C1597      C1598   1.367       .  D
C1598      C1673   1.482       .  S
C1599      H1604   1.086       .  S
C1599      C1600   1.366       .  D
C1600      C1640   1.481       .  S
C1605      C1606   1.530       .  S
C1605      C1611   1.535       .  S
C1605      C1609   1.534       .  S
C1605      C1764   1.466       .  S
C1606      H1613   1.086       .  S
C1606      C1607   1.366       .  D
C1607      C1608   1.538       .  S
C1607      C1643   1.481       .  S
C1608      C1612   1.535       .  S
C1608      C1610   1.540       .  S
C1608      H1614   1.108       .  S
C1609      H1615   1.086       .  S
C1609      C1610   1.367       .  D
C1610      C1693   1.479       .  S
C1611      H1616   1.086       .  S
C1611      C1612   1.368       .  D
C1612      C1630   1.484       .  S
C1617      C1618   1.530       .  S
C1617      C1623   1.531       .  S
C1617      C1621   1.538       .  S
C1617      C1757   1.470       .  S
C1618      H1625   1.086       .  S
C1618      C1619   1.366       .  D
C1619      C1620   1.540       .  S
C1619      C1633   1.487       .  S
C1620      C1624   1.537       .  S
C1620      C1622   1.548       .  S
C1620      H1626   1.106       .  S
C1621      H1627   1.085       .  S
C1621      C1622   1.374       .  D
C1622      C1713   1.501       .  S
C1623      H1628   1.087       .  S
C1623      C1624   1.362       .  D
C1624      C1660   1.473       .  S
C1629      C1630   1.403       .  A
C1629      C1634   1.396       .  A
C1629      H1635   1.083       .  S
C1630      C1631   1.406       .  A
C1631      C1632   1.400       .  A
C1631      H1636   1.083       .  S
C1632      C1633   1.406       .  A
C1632      H1637   1.083       .  S
C1633      C1634   1.405       .  A
C1634      H1638   1.082       .  S
C1639      C1640   1.404       .  A
C1639      C1644   1.395       .  A
C1639      H1645   1.082       .  S
C1640      C1641   1.405       .  A
C1641      C1642   1.396       .  A
C1641      H1646   1.083       .  S
C1642      C1643   1.405       .  A
C1642      H1647   1.082       .  S
C1643      C1644   1.403       .  A
C1644      H1648   1.082       .  S
C1649      C1650   1.405       .  A
C1649      C1654   1.398       .  A
C1649      H1655   1.082       .  S
C1650      C1651   1.405       .  A
C1651      C1652   1.397       .  A
C1651      H1656   1.082       .  S
C1652      C1653   1.405       .  A
C1652      H1657   1.083       .  S
C1653      C1654   1.404       .  A
C1654      H1658   1.083       .  S
C1659      C1660   1.404       .  A
C1659      C1664   1.399       .  A
C1659      H1665   1.083       .  S
C1660      C1661   1.400       .  A
C1661      C1662   1.393       .  A
C1661      H1666   1.080       .  S
C1662      C1663   1.400       .  A
C1662      H1667   1.079       .  S
C1663      C1664   1.404       .  A
C1664      H1668   1.083       .  S
C1669      C1670   1.400       .  A
C1669      C1674   1.390       .  A
C1669      H1675   1.073       .  S
C1670      C1671   1.407       .  A
C1671      C1672   1.404       .  A
C1671      H1676   1.083       .  S
C1672      C1673   1.407       .  A
C1672      H1677   1.083       .  S
C1673      C1674   1.400       .  A
C1674      H1678   1.083       .  S
C1679      C1680   1.405       .  A
C1679      C1684   1.400       .  A
C1679      H1685   1.083       .  S
C1680      C1681   1.404       .  A
C1681      C1682   1.397       .  A
C1681      H1686   1.083       .  S
C1682      C1683   1.404       .  A
C1682      H1687   1.083       .  S
C1683      C1684   1.406       .  A
C1684      H1688   1.083       .  S
C1689      C1690   1.400       .  A
C1689      C1694   1.391       .  A
C1689      H1695   1.075       .  S
C1690      C1691   1.407       .  A
C1691      C1692   1.403       .  A
C1691      H1696   1.083       .  S
C1692      C1693   1.405       .  A
C1692      H1697   1.083       .  S
C1693      C1694   1.400       .  A
C1694      H1698   1.083       .  S
C1699      C1700   1.405       .  A
C1699      C1704   1.399       .  A
C1699      H1705   1.082       .  S
C1700      C1701   1.402       .  A
C1701      C1702   1.392       .  A
C1701      H1706   1.082       .  S
C1702      C1703   1.404       .  A
C1702      H1707   1.074       .  S
C1703      C1704   1.409       .  A
C1704      H1708   1.082       .  S
C1709      C1710   1.405       .  A
C1709      C1714   1.392       .  A
C1709      H1715   1.077       .  S
C1710      C1711   1.410       .  A
C1711      C1712   1.406       .  A
C1711      H1716   1.081       .  S
C1712      C1713   1.410       .  A
C1712      H1717   1.081       .  S
C1713      C1714   1.404       .  A
C1714      H1718   1.077       .  S
C1719      C1720   1.401       .  A
C1719      C1724   1.392       .  A
C1719      H1725   1.082       .  S
C1720      C1721   1.406       .  A
C1721      C1722   1.400       .  A
C1721      H1726   1.082       .  S
C1722      C1723   1.409       .  A
C1722      H1727   1.082       .  S
C1723      C1724   1.404       .  A
C1724      H1728   1.072       .  S
C1729      C1730   1.409       .  A
C1729      C1734   1.406       .  A
C1729      H1735   1.082       .  S
C1730      C1731   1.404       .  A
C1731      C1732   1.391       .  A
C1731      H1736   1.076       .  S
C1732      C1733   1.404       .  A
C1732      H1737   1.076       .  S
C1733      C1734   1.409       .  A
C1734      H1738   1.082       .  S
C1739      C1740   1.400       .  A
C1739      C1744   1.392       .  A
C1739      H1745   1.079       .  S
C1740      C1741   1.404       .  A
C1741      C1742   1.401       .  A
C1741      H1746   1.083       .  S
C1742      C1743   1.405       .  A
C1742      H1747   1.083       .  S
C1743      C1744   1.399       .  A
C1744      H1748   1.080       .  S
C1749      C1750   1.204       .  T
C1751      C1752   1.205       .  T
C1753      C1754   1.204       .  T
C1755      C1756   1.205       .  T
C1757      C1758   1.207       .  T
C1759      C1760   1.205       .  T
C1761      C1762   1.205       .  T
C1763      C1764   1.205       .  T
O1765     Zr1777   2.447   1_655  S
O1765      C1767   1.287       .  A
O1766      C1767   1.284       .  A
C1767      C2052   1.436       .  S
O1768      C1770   1.287       .  A
O1769     Zr2098   2.419       .  S
O1769      C1770   1.284       .  A
C1770      C2045   1.435       .  S
O1771     Zr1780   2.443   1_655  S
O1771      C1773   1.287       .  A
O1772      C1773   1.285       .  A
C1773      C2057   1.435       .  S
O1774      C1776   1.287       .  A
O1775     Zr1804   2.414       .  S
O1775      C1776   1.282       .  A
C1776      C2056   1.431       .  S
Zr1777     O1778   2.433       .  S
Zr1777     O2077   2.373   1_455  S
O1778      H1821   0.990   1_455  S
O1779      H1824   0.990       .  S
Zr1780     O1781   2.435       .  S
Zr1780     O1783   2.371   1_454  S
O1781      H1825   0.990       .  S
O1783     Zr2071   2.372   1_655  S
O1784     Zr2098   2.384   1_556  S
O1784      H1811   0.965       .  S
O1785     Zr1797   2.448       .  S
O1785      C1787   1.288       .  A
O1786      C1787   1.282       .  A
C1787      C2043   1.431       .  S
O1788      C1790   1.287       .  A
O1789     Zr1803   2.418   1_554  S
O1789      C1790   1.284       .  A
C1790      C2048   1.431       .  S
O1791     Zr1800   2.445       .  S
O1791      C1793   1.287       .  A
O1792      C1793   1.284       .  A
C1793      C2049   1.434       .  S
O1794      C1796   1.287       .  A
O1795     Zr2097   2.419       .  S
O1795      C1796   1.283       .  A
C1796      C2053   1.433       .  S
Zr1797     O1805   2.370       .  S
O1798      H1823   0.990       .  S
Zr1800     O1801   2.433       .  S
Zr1800     O2099   2.372       .  S
Zr1803     O2089   2.420       .  S
Zr1803     O2100   2.381   1_556  S
Zr1803     O1808   2.386   1_556  S
Zr1803     O2103   2.385       .  S
Zr1804     O2063   2.415       .  S
Zr1804     O2078   2.383       .  S
Zr1804     O1807   2.379       .  S
Zr1804     O2104   2.383       .  S
O1805     Zr2094   2.371       .  S
O1805      H1813   0.966       .  S
O1806     Zr2097   2.379       .  S
O1808      H1812   0.965       .  S
O1809     Zr2097   2.384       .  S
O1809      H1814   0.966       .  S
O1810     Zr2098   2.382       .  S
C1827      C1828   1.530       .  S
C1827      C1833   1.532       .  S
C1827      C1831   1.539       .  S
C1827      C2044   1.464       .  S
C1828      H1835   1.086       .  S
C1828      C1829   1.365       .  D
C1829      C1830   1.541       .  S
C1829      C2014   1.484       .  S
C1830      C1834   1.536       .  S
C1830      C1832   1.546       .  S
C1830      H1836   1.105       .  S
C1831      H1837   1.085       .  S
C1831      C1832   1.374       .  D
C1832      C2024   1.499       .  S
C1833      H1838   1.086       .  S
C1833      C1834   1.361       .  D
C1834      C2034   1.477       .  S
C1839      C1840   1.531       .  S
C1839      C1845   1.529       .  S
C1839      C1843   1.539       .  S
C1839      C2055   1.464       .  S
C1840      H1847   1.086       .  S
C1840      C1841   1.361       .  D
C1841      C1842   1.537       .  S
C1841      C2037   1.476       .  S
C1842      C1846   1.540       .  S
C1842      C1844   1.546       .  S
C1842      H1848   1.105       .  S
C1843      H1849   1.085       .  S
C1843      C1844   1.374       .  D
C1844      C2004   1.500       .  S
C1845      H1850   1.086       .  S
C1845      C1846   1.364       .  D
C1846      C1994   1.483       .  S
C1851      C1852   1.533       .  S
C1851      C1857   1.533       .  S
C1851      C1855   1.533       .  S
C1851      C2046   1.468       .  S
C1852      H1859   1.086       .  S
C1852      C1853   1.368       .  D
C1853      C1854   1.541       .  S
C1853      C1997   1.491       .  S
C1854      C1858   1.540       .  S
C1854      C1856   1.544       .  S
C1854      H1860   1.107       .  S
C1855      H1861   1.086       .  S
C1855      C1856   1.366       .  D
C1856      C1984   1.485       .  S
C1857      H1862   1.086       .  S
C1857      C1858   1.367       .  D
C1858      C1974   1.485       .  S
C1863      C1864   1.531       .  S
C1863      C1869   1.531       .  S
C1863      C1867   1.533       .  S
C1863      C2050   1.467       .  S
C1864      H1871   1.086       .  S
C1864      C1865   1.367       .  D
C1865      C1866   1.541       .  S
C1865      C1977   1.486       .  S
C1866      C1870   1.545       .  S
C1866      C1868   1.546       .  S
C1866      H1872   1.107       .  S
C1867      H1873   1.086       .  S
C1867      C1868   1.368       .  D
C1868      C1964   1.487       .  S
C1869      H1874   1.085       .  S
C1869      C1870   1.367       .  D
C1870      C2017   1.493       .  S
C1875      C1876   1.531       .  S
C1875      C1881   1.529       .  S
C1875      C1879   1.538       .  S
C1875      C2054   1.466       .  S
C1876      H1883   1.087       .  S
C1876      C1877   1.361       .  D
C1877      C1878   1.536       .  S
C1877      C1957   1.474       .  S
C1878      C1882   1.541       .  S
C1878      C1880   1.547       .  S
C1878      H1884   1.105       .  S
C1879      H1885   1.085       .  S
C1879      C1880   1.374       .  D
C1880      C2027   1.499       .  S
C1881      H1886   1.086       .  S
C1881      C1882   1.366       .  D
C1882      C1944   1.484       .  S
C1887      C1888   1.532       .  S
C1887      C1893   1.531       .  S
C1887      C1891   1.535       .  S
C1887      C2047   1.464       .  S
C1888      H1895   1.086       .  S
C1888      C1889   1.366       .  D
C1889      C1890   1.537       .  S
C1889      C1947   1.482       .  S
C1890      C1894   1.538       .  S
C1890      C1892   1.540       .  S
C1890      H1896   1.108       .  S
C1891      H1897   1.086       .  S
C1891      C1892   1.367       .  D
C1892      C1967   1.481       .  S
C1893      H1898   1.086       .  S
C1893      C1894   1.366       .  D
C1894      C1934   1.481       .  S
C1899      C1900   1.532       .  S
C1899      C1905   1.536       .  S
C1899      C1903   1.535       .  S
C1899      C2058   1.469       .  S
C1900      H1907   1.086       .  S
C1900      C1901   1.367       .  D
C1901      C1902   1.537       .  S
C1901      C1937   1.481       .  S
C1902      C1906   1.536       .  S
C1902      C1904   1.539       .  S
C1902      H1908   1.108       .  S
C1903      H1909   1.086       .  S
C1903      C1904   1.367       .  D
C1904      C1987   1.480       .  S
C1905      H1910   1.086       .  S
C1905      C1906   1.368       .  D
C1906      C1924   1.486       .  S
C1911      C1912   1.530       .  S
C1911      C1917   1.531       .  S
C1911      C1915   1.538       .  S
C1911      C2051   1.469       .  S
C1912      H1919   1.086       .  S
C1912      C1913   1.366       .  D
C1913      C1914   1.542       .  S
C1913      C1927   1.488       .  S
C1914      C1918   1.537       .  S
C1914      C1916   1.548       .  S
C1914      H1920   1.105       .  S
C1915      H1921   1.085       .  S
C1915      C1916   1.374       .  D
C1916      C2007   1.500       .  S
C1917      H1922   1.087       .  S
C1917      C1918   1.362       .  D
C1918      C1954   1.474       .  S
C1923      C1924   1.404       .  A
C1923      C1928   1.398       .  A
C1923      H1929   1.083       .  S
C1924      C1925   1.406       .  A
C1925      C1926   1.399       .  A
C1925      H1930   1.083       .  S
C1926      C1927   1.405       .  A
C1926      H1931   1.082       .  S
C1927      C1928   1.406       .  A
C1928      H1932   1.082       .  S
C1933      C1934   1.404       .  A
C1933      C1938   1.396       .  A
C1933      H1939   1.083       .  S
C1934      C1935   1.404       .  A
C1935      C1936   1.396       .  A
C1935      H1940   1.082       .  S
C1936      C1937   1.404       .  A
C1936      H1941   1.082       .  S
C1937      C1938   1.404       .  A
C1938      H1942   1.083       .  S
C1943      C1944   1.405       .  A
C1943      C1948   1.396       .  A
C1943      H1949   1.082       .  S
C1944      C1945   1.405       .  A
C1945      C1946   1.397       .  A
C1945      H1950   1.082       .  S
C1946      C1947   1.405       .  A
C1946      H1951   1.083       .  S
C1947      C1948   1.404       .  A
C1948      H1952   1.083       .  S
C1953      C1954   1.403       .  A
C1953      C1958   1.399       .  A
C1953      H1959   1.083       .  S
C1954      C1955   1.400       .  A
C1955      C1956   1.393       .  A
C1955      H1960   1.079       .  S
C1956      C1957   1.400       .  A
C1956      H1961   1.079       .  S
C1957      C1958   1.403       .  A
C1958      H1962   1.083       .  S
C1963      C1964   1.401       .  A
C1963      C1968   1.390       .  A
C1963      H1969   1.073       .  S
C1964      C1965   1.407       .  A
C1965      C1966   1.404       .  A
C1965      H1970   1.083       .  S
C1966      C1967   1.406       .  A
C1966      H1971   1.083       .  S
C1967      C1968   1.400       .  A
C1968      H1972   1.083       .  S
C1973      C1974   1.405       .  A
C1973      C1978   1.400       .  A
C1973      H1979   1.083       .  S
C1974      C1975   1.405       .  A
C1975      C1976   1.397       .  A
C1975      H1980   1.083       .  S
C1976      C1977   1.404       .  A
C1976      H1981   1.083       .  S
C1977      C1978   1.406       .  A
C1978      H1982   1.083       .  S
C1983      C1984   1.401       .  A
C1983      C1988   1.391       .  A
C1983      H1989   1.074       .  S
C1984      C1985   1.407       .  A
C1985      C1986   1.404       .  A
C1985      H1990   1.083       .  S
C1986      C1987   1.406       .  A
C1986      H1991   1.083       .  S
C1987      C1988   1.400       .  A
C1988      H1992   1.083       .  S
C1993      C1994   1.405       .  A
C1993      C1998   1.399       .  A
C1993      H1999   1.082       .  S
C1994      C1995   1.401       .  A
C1995      C1996   1.392       .  A
C1995      H2000   1.082       .  S
C1996      C1997   1.404       .  A
C1996      H2001   1.073       .  S
C1997      C1998   1.408       .  A
C1998      H2002   1.082       .  S
C2003      C2004   1.404       .  A
C2003      C2008   1.391       .  A
C2003      H2009   1.076       .  S
C2004      C2005   1.410       .  A
C2005      C2006   1.405       .  A
C2005      H2010   1.081       .  S
C2006      C2007   1.409       .  A
C2006      H2011   1.081       .  S
C2007      C2008   1.404       .  A
C2008      H2012   1.076       .  S
C2013      C2014   1.401       .  A
C2013      C2018   1.391       .  A
C2013      H2019   1.082       .  S
C2014      C2015   1.406       .  A
C2015      C2016   1.400       .  A
C2015      H2020   1.082       .  S
C2016      C2017   1.409       .  A
C2016      H2021   1.082       .  S
C2017      C2018   1.403       .  A
C2018      H2022   1.073       .  S
C2023      C2024   1.410       .  A
C2023      C2028   1.406       .  A
C2023      H2029   1.081       .  S
C2024      C2025   1.404       .  A
C2025      C2026   1.391       .  A
C2025      H2030   1.076       .  S
C2026      C2027   1.404       .  A
C2026      H2031   1.076       .  S
C2027      C2028   1.409       .  A
C2028      H2032   1.082       .  S
C2033      C2034   1.400       .  A
C2033      C2038   1.392       .  A
C2033      H2039   1.079       .  S
C2034      C2035   1.405       .  A
C2035      C2036   1.401       .  A
C2035      H2040   1.083       .  S
C2036      C2037   1.405       .  A
C2036      H2041   1.083       .  S
C2037      C2038   1.400       .  A
C2038      H2042   1.080       .  S
C2043      C2044   1.204       .  T
C2045      C2046   1.206       .  T
C2047      C2048   1.204       .  T
C2049      C2050   1.205       .  T
C2051      C2052   1.207       .  T
C2053      C2054   1.205       .  T
C2055      C2056   1.204       .  T
C2057      C2058   1.206       .  T
O2059     Zr2071   2.444   1_655  S
O2059      C2061   1.287       .  A
O2060      C2061   1.285       .  A
C2061      C2346   1.436       .  S
O2062      C2064   1.287       .  A
O2063      C2064   1.283       .  A
C2064      C2339   1.432       .  S
O2065     Zr2074   2.441   1_655  S
O2065      C2067   1.287       .  A
O2066      C2067   1.284       .  A
C2067      C2351   1.433       .  S
O2068      C2070   1.288       .  A
O2069     Zr2098   2.418   1_556  S
O2069      C2070   1.284       .  A
C2070      C2350   1.434       .  S
Zr2071     O2072   2.433       .  S
O2072      H2115   0.990   1_455  S
O2073      H2118   0.990       .  S
Zr2074     O2075   2.435       .  S
Zr2074     O2077   2.373   1_455  S
O2075      H2119   0.990       .  S
O2078      H2105   0.965       .  S
O2079     Zr2091   2.444       .  S
O2079      C2081   1.287       .  A
O2080      C2081   1.283       .  A
C2081      C2337   1.432       .  S
O2082      C2084   1.287       .  A
O2083     Zr2097   2.422       .  S
O2083      C2084   1.284       .  A
C2084      C2342   1.434       .  S
O2085     Zr2094   2.447       .  S
O2085      C2087   1.287       .  A
O2086      C2087   1.284       .  A
C2087      C2343   1.435       .  S
O2088      C2090   1.287       .  A
O2089      C2090   1.284       .  A
C2090      C2347   1.433       .  S
Zr2091     O2099   2.369   1_556  S
O2092      H2117   0.990       .  S
Zr2094     O2095   2.433       .  S
Zr2097     O2102   2.385       .  S
Zr2098     O2101   2.380   1_554  S
O2099      H2107   0.966       .  S
O2102      H2106   0.964       .  S
O2103      H2108   0.966       .  S
C2121      C2122   1.530       .  S
C2121      C2127   1.531       .  S
C2121      C2125   1.540       .  S
C2121      C2338   1.464       .  S
C2122      H2129   1.086       .  S
C2122      C2123   1.365       .  D
C2123      C2124   1.540       .  S
C2123      C2308   1.485       .  S
C2124      C2128   1.535       .  S
C2124      C2126   1.545       .  S
C2124      H2130   1.105       .  S
C2125      H2131   1.085       .  S
C2125      C2126   1.374       .  D
C2126      C2318   1.499       .  S
C2127      H2132   1.087       .  S
C2127      C2128   1.361       .  D
C2128      C2328   1.475       .  S
C2133      C2134   1.530       .  S
C2133      C2139   1.530       .  S
C2133      C2137   1.540       .  S
C2133      C2349   1.466       .  S
C2134      H2141   1.087       .  S
C2134      C2135   1.361       .  D
C2135      C2136   1.537       .  S
C2135      C2331   1.475       .  S
C2136      C2140   1.541       .  S
C2136      C2138   1.547       .  S
C2136      H2142   1.105       .  S
C2137      H2143   1.085       .  S
C2137      C2138   1.374       .  D
C2138      C2298   1.501       .  S
C2139      H2144   1.086       .  S
C2139      C2140   1.365       .  D
C2140      C2288   1.484       .  S
C2145      C2146   1.532       .  S
C2145      C2151   1.533       .  S
C2145      C2149   1.531       .  S
C2145      C2340   1.465       .  S
C2146      H2153   1.086       .  S
C2146      C2147   1.368       .  D
C2147      C2148   1.541       .  S
C2147      C2291   1.490       .  S
C2148      C2152   1.539       .  S
C2148      C2150   1.544       .  S
C2148      H2154   1.107       .  S
C2149      H2155   1.086       .  S
C2149      C2150   1.366       .  D
C2150      C2278   1.483       .  S
C2151      H2156   1.086       .  S
C2151      C2152   1.367       .  D
C2152      C2268   1.484       .  S
C2157      C2158   1.532       .  S
C2157      C2163   1.533       .  S
C2157      C2161   1.533       .  S
C2157      C2344   1.469       .  S
C2158      H2165   1.086       .  S
C2158      C2159   1.367       .  D
C2159      C2160   1.541       .  S
C2159      C2271   1.485       .  S
C2160      C2164   1.543       .  S
C2160      C2162   1.546       .  S
C2160      H2166   1.107       .  S
C2161      H2167   1.086       .  S
C2161      C2162   1.368       .  D
C2162      C2258   1.487       .  S
C2163      H2168   1.085       .  S
C2163      C2164   1.368       .  D
C2164      C2311   1.493       .  S
C2169      C2170   1.531       .  S
C2169      C2175   1.530       .  S
C2169      C2173   1.537       .  S
C2169      C2348   1.465       .  S
C2170      H2177   1.087       .  S
C2170      C2171   1.361       .  D
C2171      C2172   1.536       .  S
C2171      C2251   1.472       .  S
C2172      C2176   1.540       .  S
C2172      C2174   1.546       .  S
C2172      H2178   1.106       .  S
C2173      H2179   1.085       .  S
C2173      C2174   1.373       .  D
C2174      C2321   1.498       .  S
C2175      H2180   1.086       .  S
C2175      C2176   1.366       .  D
C2176      C2238   1.485       .  S
C2181      C2182   1.533       .  S
C2181      C2187   1.531       .  S
C2181      C2185   1.535       .  S
C2181      C2341   1.467       .  S
C2182      H2189   1.086       .  S
C2182      C2183   1.366       .  D
C2183      C2184   1.538       .  S
C2183      C2241   1.484       .  S
C2184      C2188   1.539       .  S
C2184      C2186   1.541       .  S
C2184      H2190   1.108       .  S
C2185      H2191   1.086       .  S
C2185      C2186   1.368       .  D
C2186      C2261   1.482       .  S
C2187      H2192   1.086       .  S
C2187      C2188   1.366       .  D
C2188      C2228   1.483       .  S
C2193      C2194   1.531       .  S
C2193      C2199   1.535       .  S
C2193      C2197   1.534       .  S
C2193      C2352   1.466       .  S
C2194      H2201   1.086       .  S
C2194      C2195   1.366       .  D
C2195      C2196   1.538       .  S
C2195      C2231   1.482       .  S
C2196      C2200   1.536       .  S
C2196      C2198   1.539       .  S
C2196      H2202   1.108       .  S
C2197      H2203   1.086       .  S
C2197      C2198   1.367       .  D
C2198      C2281   1.478       .  S
C2199      H2204   1.086       .  S
C2199      C2200   1.367       .  D
C2200      C2218   1.485       .  S
C2205      C2206   1.530       .  S
C2205      C2211   1.531       .  S
C2205      C2209   1.539       .  S
C2205      C2345   1.469       .  S
C2206      H2213   1.086       .  S
C2206      C2207   1.366       .  D
C2207      C2208   1.540       .  S
C2207      C2221   1.487       .  S
C2208      C2212   1.537       .  S
C2208      C2210   1.547       .  S
C2208      H2214   1.105       .  S
C2209      H2215   1.085       .  S
C2209      C2210   1.374       .  D
C2210      C2301   1.500       .  S
C2211      H2216   1.087       .  S
C2211      C2212   1.361       .  D
C2212      C2248   1.473       .  S
C2217      C2218   1.404       .  A
C2217      C2222   1.398       .  A
C2217      H2223   1.083       .  S
C2218      C2219   1.405       .  A
C2219      C2220   1.399       .  A
C2219      H2224   1.083       .  S
C2220      C2221   1.405       .  A
C2220      H2225   1.082       .  S
C2221      C2222   1.406       .  A
C2222      H2226   1.082       .  S
C2227      C2228   1.404       .  A
C2227      C2232   1.395       .  A
C2227      H2233   1.082       .  S
C2228      C2229   1.405       .  A
C2229      C2230   1.396       .  A
C2229      H2234   1.082       .  S
C2230      C2231   1.405       .  A
C2230      H2235   1.082       .  S
C2231      C2232   1.404       .  A
C2232      H2236   1.082       .  S
C2237      C2238   1.405       .  A
C2237      C2242   1.397       .  A
C2237      H2243   1.082       .  S
C2238      C2239   1.405       .  A
C2239      C2240   1.397       .  A
C2239      H2244   1.083       .  S
C2240      C2241   1.405       .  A
C2240      H2245   1.083       .  S
C2241      C2242   1.404       .  A
C2242      H2246   1.083       .  S
C2247      C2248   1.403       .  A
C2247      C2252   1.399       .  A
C2247      H2253   1.083       .  S
C2248      C2249   1.400       .  A
C2249      C2250   1.392       .  A
C2249      H2254   1.080       .  S
C2250      C2251   1.399       .  A
C2250      H2255   1.079       .  S
C2251      C2252   1.403       .  A
C2252      H2256   1.083       .  S
C2257      C2258   1.400       .  A
C2257      C2262   1.390       .  A
C2257      H2263   1.073       .  S
C2258      C2259   1.408       .  A
C2259      C2260   1.404       .  A
C2259      H2264   1.083       .  S
C2260      C2261   1.407       .  A
C2260      H2265   1.083       .  S
C2261      C2262   1.400       .  A
C2262      H2266   1.083       .  S
C2267      C2268   1.405       .  A
C2267      C2272   1.399       .  A
C2267      H2273   1.083       .  S
C2268      C2269   1.405       .  A
C2269      C2270   1.397       .  A
C2269      H2274   1.083       .  S
C2270      C2271   1.404       .  A
C2270      H2275   1.083       .  S
C2271      C2272   1.406       .  A
C2272      H2276   1.083       .  S
C2277      C2278   1.400       .  A
C2277      C2282   1.390       .  A
C2277      H2283   1.074       .  S
C2278      C2279   1.407       .  A
C2279      C2280   1.403       .  A
C2279      H2284   1.083       .  S
C2280      C2281   1.406       .  A
C2280      H2285   1.083       .  S
C2281      C2282   1.400       .  A
C2282      H2286   1.083       .  S
C2287      C2288   1.405       .  A
C2287      C2292   1.399       .  A
C2287      H2293   1.082       .  S
C2288      C2289   1.401       .  A
C2289      C2290   1.392       .  A
C2289      H2294   1.082       .  S
C2290      C2291   1.404       .  A
C2290      H2295   1.074       .  S
C2291      C2292   1.408       .  A
C2292      H2296   1.082       .  S
C2297      C2298   1.404       .  A
C2297      C2302   1.391       .  A
C2297      H2303   1.077       .  S
C2298      C2299   1.410       .  A
C2299      C2300   1.407       .  A
C2299      H2304   1.081       .  S
C2300      C2301   1.410       .  A
C2300      H2305   1.082       .  S
C2301      C2302   1.404       .  A
C2302      H2306   1.076       .  S
C2307      C2308   1.401       .  A
C2307      C2312   1.392       .  A
C2307      H2313   1.082       .  S
C2308      C2309   1.405       .  A
C2309      C2310   1.399       .  A
C2309      H2314   1.082       .  S
C2310      C2311   1.408       .  A
C2310      H2315   1.082       .  S
C2311      C2312   1.404       .  A
C2312      H2316   1.073       .  S
C2317      C2318   1.409       .  A
C2317      C2322   1.405       .  A
C2317      H2323   1.081       .  S
C2318      C2319   1.404       .  A
C2319      C2320   1.390       .  A
C2319      H2324   1.076       .  S
C2320      C2321   1.403       .  A
C2320      H2325   1.076       .  S
C2321      C2322   1.409       .  A
C2322      H2326   1.082       .  S
C2327      C2328   1.400       .  A
C2327      C2332   1.392       .  A
C2327      H2333   1.080       .  S
C2328      C2329   1.404       .  A
C2329      C2330   1.400       .  A
C2329      H2334   1.083       .  S
C2330      C2331   1.405       .  A
C2330      H2335   1.083       .  S
C2331      C2332   1.400       .  A
C2332      H2336   1.080       .  S
C2337      C2338   1.204       .  T
C2339      C2340   1.204       .  T
C2341      C2342   1.205       .  T
C2343      C2344   1.206       .  T
C2345      C2346   1.207       .  T
C2347      C2348   1.205       .  T
C2349      C2350   1.205       .  T
C2351      C2352   1.205       .  T
