geometry optimzed in LAMMPS
_audit_creation_date              2020-11-30 
_audit_creation_method            'lammps2cif' 
_symmetry_space_group_name_H-M    'P1' 
_symmetry_Int_Tables_number       1 
_symmetry_cell_setting            triclinic 
loop_ 
_symmetry_equiv_pos_as_xyz 
  x,y,z 
_cell_length_a                    37.571058935111694 
_cell_length_b                    37.302800702075864 
_cell_length_c                    30.363881252708595 
_cell_angle_alpha                 91.15778548016043 
_cell_angle_beta                  89.47628853778133 
_cell_angle_gamma                 124.23037726041717 
loop_ 
_atom_site_label 
_atom_site_type_symbol 
_atom_site_fract_x 
_atom_site_fract_y 
_atom_site_fract_z 
_atom_site_charge 
C1          C  0.55047603  0.85397634  0.00417094     0.03200
C2          C  0.55239481  0.87804872  0.46752054    -0.12950
C3          C  0.54272085  0.90925126  0.47196841     0.00700
C4          C  0.53147347  0.91709544  0.51340353    -0.11470
C5          C  0.53106321  0.89524205  0.05034635     0.03190
C6          C  0.53929967  0.86320240  0.04557403    -0.10890
H7          H  0.56291225  0.87432705  0.43558334     0.08790
H8          H  0.52505113  0.94189868  0.51733714     0.06320
H9          H  0.53708051  0.84637791  0.07498417     0.06160
C10         C  0.32904980  0.95704390  0.45498491     0.03200
C11         C  0.35324135  0.97995724  0.49225672    -0.12950
C12         C  0.33800014  0.96400728  0.03451280     0.00700
C13         C  0.29651001  0.92610814  0.03922806    -0.11470
C14         C  0.27003372  0.90315347  0.00200473     0.03190
C15         C  0.28719476  0.92014077  0.45989697    -0.10890
H16         H  0.38615151  0.00762833  0.48819568     0.08790
H17         H  0.28744380  0.91309091  0.07188039     0.06320
H18         H  0.27039836  0.90363693  0.42995898     0.06160
O19         O  0.54212552  0.04869038  0.35900240    -0.80060
O20         O  0.62588433  0.11324901  0.20090348    -0.80090
O21         O  0.49687978  0.98508213  0.21436655    -0.80100
O22         O  0.62193642  0.16374159  0.29266779    -0.80040
O23         O  0.56575435  0.02737857  0.20534192    -0.80160
O24         O  0.60770411  0.09841041  0.30214579    -0.80080
O25         O  0.62683309  0.17184930  0.20218531    -0.80060
O26         O  0.52614022  0.00743909  0.29959402    -0.80100
C27         C  0.53619756  0.01498635  0.34115296     1.09630
C28         C  0.64372521  0.15183085  0.19004183     1.09510
C29         C  0.53127082  0.99053740  0.19994577     1.09650
C30         C  0.63259986  0.13915128  0.30756303     1.09530
O31         O  0.55504263  0.12291705  0.33937357    -0.80070
O32         O  0.50614900  0.03915992  0.15843228    -0.80140
O33         O  0.44454359  0.98190093  0.28088229    -0.80080
O34         O  0.53895839  0.14707962  0.20126232    -0.80060
O35         O  0.56472852  0.12424292  0.15078166    -0.80110
O36         O  0.47962864  0.04690226  0.31355933    -0.80080
O37         O  0.53434121  0.14590982  0.28783311    -0.80030
O38         O  0.46380947  0.03651435  0.21102516    -0.80100
Co39       Co  0.54523640  0.07244367  0.30413589     1.51530
Co40       Co  0.56573169  0.07643339  0.18226439     1.51690
Co41       Co  0.49671596  0.02756977  0.25587993     1.51570
Co42       Co  0.57825403  0.15306249  0.24622904     1.51470
O43         O  0.54887526  0.08729856  0.24123788    -1.42000
C44         C  0.54127777  0.14520407  0.32783010     1.09550
C45         C  0.47012345  0.03157517  0.17063097     1.09640
C46         C  0.44552577  0.00763648  0.30967177     1.09580
C47         C  0.54615493  0.14319608  0.16167100     1.09550
C48         C  0.50660265  0.28903163  0.50315615     0.03200
C49         C  0.50669837  0.26970888  0.46241316    -0.12950
C50         C  0.50505994  0.23117379  0.46156925     0.00700
C51         C  0.49885952  0.20955505  0.50066387    -0.11470
C52         C  0.50476666  0.23038701  0.04078060     0.03190
C53         C  0.50913198  0.27023123  0.04235942    -0.10890
H54         H  0.50968250  0.28466889  0.43138817     0.08790
H55         H  0.49654568  0.17919008  0.49990295     0.06320
H56         H  0.51596977  0.28654273  0.07402395     0.06160
C57         C  0.75488090  0.20335798  0.45104245     0.03200
C58         C  0.79510553  0.24272317  0.45165871    -0.12950
C59         C  0.81247258  0.26752891  0.99094711     0.00700
C60         C  0.78702523  0.25118639  0.02951645    -0.11470
C61         C  0.74843557  0.20913839  0.03054513     0.03190
C62         C  0.73484828  0.18447269  0.49087475    -0.10890
H63         H  0.81101698  0.25398197  0.42033843     0.08790
H64         H  0.79617438  0.27162915  0.05848331     0.06320
H65         H  0.70727787  0.15139926  0.48952659     0.06160
O66         O  0.05847279  0.62608543  0.33124628    -0.80060
O67         O  0.98605207  0.56975600  0.15348725    -0.80090
O68         O  0.11631486  0.66242243  0.20986732    -0.80100
O69         O  0.95622208  0.57483663  0.29564810    -0.80040
O70         O  0.05525547  0.64333692  0.18339964    -0.80160
O71         O  0.98585856  0.55639377  0.34436210    -0.80080
O72         O  0.95812661  0.58256728  0.20897810    -0.80060
O73         O  0.11835581  0.65355569  0.29702193    -0.80100
C74         C  0.09750905  0.65571691  0.32808869     1.09630
C75         C  0.95853583  0.57621238  0.16859695     1.09510
C76         C  0.09461688  0.67172075  0.18741761     1.09650
C77         C  0.96120447  0.56869392  0.33512977     1.09530
O78         O  0.00930202  0.50583961  0.28921319    -0.80070
O79         O  0.07048806  0.59037867  0.13624176    -0.80140
O80         O  0.09361410  0.56445476  0.28685816    -0.80080
O81         O  0.95171046  0.50058321  0.19637593    -0.80060
O82         O  0.01825593  0.52138171  0.18810825    -0.80110
O83         O  0.06450548  0.55987547  0.35251538    -0.80080
O84         O  0.94616861  0.49412361  0.28737511    -0.80030
O85         O  0.09769977  0.57699078  0.19293854    -0.80100
Co86       Co  0.03604234  0.56776416  0.30663083     1.51530
Co87       Co  0.03849354  0.58333825  0.18806609     1.51690
Co88       Co  0.09673040  0.61033927  0.24712913     1.51570
Co89       Co  0.95834149  0.54110974  0.24690375     1.51470
O90         O  0.02567801  0.58315199  0.24986178    -1.42000
C91         C  0.97004596  0.48230142  0.29903366     1.09550
C92         C  0.09800938  0.58431657  0.15153706     1.09640
C93         C  0.09411411  0.56220353  0.32924841     1.09580
C94         C  0.97916183  0.49481388  0.17913219     1.09550
C95         C  0.26124500  0.56413602  0.49366105     0.03200
C96         C  0.24420388  0.57287028  0.03119714    -0.12950
C97         C  0.20890990  0.57598374  0.02725809     0.00700
C98         C  0.19207728  0.57303800  0.48580103    -0.11470
C99         C  0.21008410  0.56795852  0.44815328     0.03190
C100        C  0.24326807  0.56163523  0.45180893    -0.10890
H101        H  0.25789266  0.57773000  0.06361507     0.08790
H102        H  0.16468661  0.57535279  0.48254971     0.06320
H103        H  0.25421638  0.55461465  0.42193270     0.06160
C104        C  0.91576879  0.37003086  0.44940615     0.03200
C105        C  0.93857267  0.38838541  0.48869700    -0.12950
C106        C  0.91863429  0.37230356  0.02991425     0.00700
C107        C  0.87788364  0.33247614  0.03042928    -0.11470
C108        C  0.85574214  0.31068564  0.99081190     0.03190
C109        C  0.87472072  0.33167695  0.45067075    -0.10890
H110        H  0.97017543  0.41841182  0.48691352     0.08790
H111        H  0.86284130  0.31989172  0.06174307     0.06320
H112        H  0.85710761  0.32052195  0.42001183     0.06160
C113        C  0.81352059  0.60565924  0.50383814     0.03200
C114        C  0.83757349  0.60671862  0.46670954    -0.12950
C115        C  0.86102789  0.58778350  0.46822693     0.00700
C116        C  0.86158110  0.56933818  0.50740277    -0.11470
C117        C  0.84528360  0.57510563  0.04605578     0.03190
C118        C  0.81963064  0.59129710  0.04417766    -0.10890
H119        H  0.83916191  0.62286101  0.43694025     0.08790
H120        H  0.87892005  0.55401928  0.50897100     0.06320
H121        H  0.80534396  0.59253168  0.07459065     0.06160
C122        C  0.18092850  0.78518453  0.47187868     0.03200
C123        C  0.20803018  0.83079779  0.46885378    -0.12950
C124        C  0.22946354  0.85795253  0.00644814     0.00700
C125        C  0.21367674  0.83966839  0.04834964    -0.11470
C126        C  0.18462187  0.79496932  0.05234797     0.03190
C127        C  0.17267405  0.76839384  0.51474895    -0.10890
H128        H  0.21161991  0.84508693  0.43766763     0.08790
H129        H  0.22323160  0.85937497  0.07804168     0.06320
H130        H  0.15540477  0.73418884  0.52028388     0.06160
O131        O  0.48778049  0.49258614  0.20590301    -0.80060
O132        O  0.47309779  0.53939806  0.31139138    -0.80090
O133        O  0.53321954  0.50970804  0.29771709    -0.80100
O134        O  0.46811516  0.60160846  0.20756710    -0.80040
O135        O  0.53825212  0.54511389  0.35860694    -0.80160
O136        O  0.44757686  0.53426185  0.20210331    -0.80080
O137        O  0.47815619  0.60042949  0.29769227    -0.80060
O138        O  0.55293530  0.50975483  0.21121765    -0.80100
C139        C  0.51449216  0.48295514  0.19877393     1.09630
C140        C  0.46019830  0.56413642  0.31746162     1.09510
C141        C  0.53350778  0.51206422  0.34031691     1.09650
C142        C  0.44028596  0.56271260  0.19523193     1.09530
O143        O  0.51822382  0.60272582  0.15009026    -0.80070
O144        O  0.60264960  0.60145840  0.30627815    -0.80140
O145        O  0.60890466  0.60115812  0.20684134    -0.80080
O146        O  0.57226403  0.66188657  0.28452523    -0.80060
O147        O  0.54528358  0.61860104  0.33899310    -0.80110
O148        O  0.55966434  0.56260700  0.15582383    -0.80080
O149        O  0.56031342  0.65565050  0.19719710    -0.80030
O150        O  0.61630936  0.55709732  0.27349964    -0.80100
Co151      Co  0.50397174  0.54869389  0.18224638     1.51530
Co152      Co  0.53571611  0.56785050  0.30453312     1.51690
Co153      Co  0.57045015  0.55978807  0.25245480     1.51570
Co154      Co  0.52090509  0.62736618  0.24676195     1.51470
O155        O  0.52953603  0.57804904  0.24119367    -1.42000
C156        C  0.54577533  0.64287191  0.15880544     1.09550
C157        C  0.62590071  0.58595075  0.30278600     1.09640
C158        C  0.59910095  0.58766505  0.16720763     1.09580
C159        C  0.56427450  0.65647513  0.32477200     1.09550
C160        C  0.50576993  0.32907072  0.00511061     0.03200
C161        C  0.49691729  0.34229120  0.04540579    -0.12950
C162        C  0.49718853  0.37987765  0.04867608     0.00700
C163        C  0.50430370  0.40390359  0.01097457    -0.11470
C164        C  0.51217112  0.39142906  0.47025456     0.03190
C165        C  0.51323056  0.35439205  0.46738697    -0.10890
H166        H  0.48943020  0.32374404  0.07495502     0.08790
H167        H  0.50504454  0.43333582  0.01352137     0.06320
H168        H  0.52115021  0.34689177  0.43582697     0.06160
C169        C  0.29635559  0.55645603  0.99819507     0.03200
C170        C  0.32067797  0.55844004  0.46128510    -0.12950
C171        C  0.34988717  0.54626027  0.46399129     0.00700
C172        C  0.35761047  0.53597542  0.00577856    -0.11470
C173        C  0.33802132  0.53907935  0.04379412     0.03190
C174        C  0.30608781  0.54709896  0.03951270    -0.10890
H175        H  0.31827124  0.57099124  0.43061539     0.08790
H176        H  0.38068933  0.52761811  0.00944788     0.06320
H177        H  0.28948081  0.54601001  0.06914224     0.06160
C178        C  0.78182432  0.61823556  0.00006182     0.03200
C179        C  0.76187436  0.62305972  0.03761753    -0.12950
C180        C  0.72761809  0.62790940  0.03308712     0.00700
C181        C  0.71547298  0.63174877  0.99091705    -0.11470
C182        C  0.73436149  0.62712960  0.45336578     0.03190
C183        C  0.76695481  0.62003893  0.45808764    -0.10890
H184        H  0.77028023  0.62029144  0.07061471     0.08790
H185        H  0.68804259  0.63388248  0.98727819     0.06320
H186        H  0.77843286  0.61342786  0.42837474     0.06160
C187        C  0.57416918  0.76949540  0.03319309     0.03200
C188        C  0.56782658  0.80301396  0.03728528    -0.12950
C189        C  0.56112259  0.82054673  0.99962558     0.00700
C190        C  0.56264214  0.80389100  0.45770922    -0.11470
C191        C  0.57237394  0.77277239  0.45397970     0.03190
C192        C  0.57853132  0.75628139  0.99159484    -0.10890
H193        H  0.56715343  0.81375576  0.07029511     0.08790
H194        H  0.55459851  0.81309291  0.42785659     0.06320
H195        H  0.58269979  0.72982541  0.98831848     0.06160
C196        C  0.43013194  0.55532269  0.35427906    -0.00080
C197        C  0.38779694  0.54246910  0.34590951    -0.11960
C198        C  0.36023828  0.53759636  0.38067781     0.02150
C199        C  0.37597699  0.54852466  0.42477056    -0.00170
C200        C  0.41868101  0.56217481  0.43222428    -0.11900
C201        C  0.44476871  0.56367663  0.39843832     0.02040
H202        H  0.37604914  0.53563484  0.31222172     0.15020
H203        H  0.43254485  0.57243416  0.46494001     0.15020
C204        C  0.48690828  0.57536108  0.41136791     0.36670
C205        C  0.31591975  0.52000145  0.36991211     0.36580
N206        N  0.51999287  0.58502769  0.42474825    -0.43670
N207        N  0.28043833  0.50590848  0.36096581    -0.43670
C208        C  0.40476218  0.55236663  0.16427599    -0.00080
C209        C  0.38485345  0.51341938  0.13921487    -0.11960
C210        C  0.36044768  0.50699114  0.10153233     0.02150
C211        C  0.35518034  0.53969495  0.08815082    -0.00170
C212        C  0.37109025  0.57652967  0.11558398    -0.11900
C213        C  0.39546434  0.58303046  0.15338636     0.02040
H214        H  0.39046273  0.48881764  0.14731765     0.15020
H215        H  0.36654370  0.60157587  0.10610063     0.15020
C216        C  0.41161500  0.62218060  0.17928468     0.36670
C217        C  0.34192562  0.46695598  0.07655726     0.36580
N218        N  0.42456941  0.65364453  0.19990354    -0.43670
N219        N  0.32702225  0.43487083  0.05651664    -0.43670
C220        C  0.56667296  0.69061384  0.35248823    -0.00080
C221        C  0.52911056  0.67993701  0.37468416    -0.11960
C222        C  0.52931348  0.70885352  0.40446555     0.02150
C223        C  0.56777901  0.74965449  0.41240310    -0.00170
C224        C  0.60473612  0.76191044  0.38780060    -0.11900
C225        C  0.60423640  0.73275359  0.35735009     0.02040
H226        H  0.49957347  0.64840426  0.36960223     0.15020
H227        H  0.63456011  0.79301881  0.39446879     0.15020
C228        C  0.64308201  0.74559844  0.33376899     0.36670
C229        C  0.49067166  0.69443922  0.42949004     0.36580
N230        N  0.67415380  0.75584435  0.31469324    -0.43670
N231        N  0.45982753  0.68273597  0.44972067    -0.43670
C232        C  0.55467016  0.67602694  0.12681336    -0.00080
C233        C  0.52342188  0.68500715  0.12163925    -0.11960
C234        C  0.53067949  0.71821973  0.09429586     0.02150
C235        C  0.56977241  0.74273898  0.07089209    -0.00170
C236        C  0.60164278  0.73475546  0.07739790    -0.11900
C237        C  0.59458888  0.70206154  0.10545001     0.02040
H238        H  0.49322646  0.66600183  0.13916221     0.15020
H239        H  0.63162769  0.75325802  0.05928480     0.15020
C240        C  0.62861205  0.69563191  0.11055677     0.36670
C241        C  0.49674562  0.72509026  0.08944985     0.36580
N242        N  0.65710887  0.69208312  0.11356759    -0.43670
N243        N  0.46965903  0.73079214  0.08586453    -0.43670
C244        C  0.71399793  0.62124133  0.40978047    -0.00080
C245        C  0.69794820  0.58215888  0.38641400    -0.11960
C246        C  0.67156955  0.57119739  0.34944105     0.02150
C247        C  0.66111151  0.60001165  0.33483304    -0.00170
C248        C  0.67939734  0.64029848  0.35668779    -0.11900
C249        C  0.70560339  0.65105720  0.39384955     0.02040
H250        H  0.70363510  0.55873108  0.39884916     0.15020
H251        H  0.67170916  0.66273071  0.34587318     0.15020
C252        C  0.72256133  0.69235401  0.41578519     0.36670
C253        C  0.65230926  0.52832150  0.33031527     0.36580
N254        N  0.73608721  0.72538146  0.43349532    -0.43670
N255        N  0.63669185  0.49380337  0.31537608    -0.43670
C256        C  0.69720211  0.61796625  0.07003028    -0.00080
C257        C  0.65436589  0.58345382  0.06321021    -0.11960
C258        C  0.62260341  0.57272894  0.09431980     0.02150
C259        C  0.63308361  0.59710422  0.13427914    -0.00170
C260        C  0.67676912  0.63015588  0.14253238    -0.11900
C261        C  0.70868856  0.64110975  0.11052079     0.02040
H262        H  0.64548267  0.56482332  0.03266277     0.15020
H263        H  0.68577515  0.64871385  0.17318116     0.15020
C264        C  0.75224826  0.67750195  0.11888557     0.36670
C265        C  0.57981920  0.53580954  0.08367969     0.36580
N266        N  0.78715025  0.70684797  0.12550324    -0.43670
N267        N  0.54577361  0.50625146  0.07445268    -0.43670
C268        C  0.53017888  0.47830068  0.36833599    -0.00080
C269        C  0.56061355  0.49230266  0.40227931    -0.11960
C270        C  0.55722103  0.46333365  0.43322074     0.02150
C271        C  0.52185501  0.41963240  0.43181924    -0.00170
C272        C  0.49283047  0.40480660  0.39623602    -0.11900
C273        C  0.49714912  0.43377748  0.36411226     0.02040
H274        H  0.58702642  0.52623044  0.40487005     0.15020
H275        H  0.46579674  0.37113540  0.39465792     0.15020
C276        C  0.46606883  0.41771597  0.32880773     0.36670
C277        C  0.59047328  0.47894359  0.46621830     0.36580
N278        N  0.44131235  0.40493532  0.30032804    -0.43670
N279        N  0.61714212  0.49070200  0.99247625    -0.43670
C280        C  0.50333781  0.44657132  0.16798905    -0.00080
C281        C  0.46890313  0.43188920  0.13841339    -0.11960
C282        C  0.46451611  0.40757517  0.10063327     0.02150
C283        C  0.49444548  0.39685105  0.09227197    -0.00170
C284        C  0.52575511  0.40712109  0.12425307    -0.11900
C285        C  0.53043028  0.43179091  0.16191148     0.02040
H286        H  0.44724634  0.44219352  0.14279953     0.15020
H287        H  0.54835280  0.39819152  0.11845914     0.15020
C288        C  0.56421634  0.44272086  0.19285620     0.36670
C289        C  0.43027177  0.39571420  0.06991628     0.36580
N290        N  0.59122670  0.45142667  0.21773202    -0.43610
N291        N  0.40292440  0.38628957  0.54520833    -0.43670
C292        C  0.92474615  0.57309982  0.14118581    -0.00080
C293        C  0.92048861  0.60812376  0.14159275    -0.11960
C294        C  0.89054960  0.60781027  0.11424329     0.02150
C295        C  0.86279359  0.57091248  0.08756147    -0.00170
C296        C  0.86269157  0.53357562  0.09259492    -0.11900
C297        C  0.89354278  0.53443752  0.11870994     0.02040
H298        H  0.94211634  0.63671264  0.16164060     0.15020
H299        H  0.84054973  0.50465582  0.07314385     0.15020
C300        C  0.89047391  0.49440702  0.12295463     0.36670
C301        C  0.89172245  0.64704051  0.11134009     0.36580
N302        N  0.88527573  0.46089602  0.12576495    -0.43670
N303        N  0.89265591  0.67848544  0.10901709    -0.43670
C304        C  0.93657028  0.57515298  0.36925393    -0.00080
C305        C  0.89885607  0.57214731  0.35656208    -0.11960
C306        C  0.87374834  0.57702688  0.38747142     0.02150
C307        C  0.88829883  0.58897218  0.43138850    -0.00170
C308        C  0.92793470  0.59570605  0.44266649    -0.11900
C309        C  0.94958801  0.58507341  0.41356234     0.02040
H310        H  0.88748836  0.56344710  0.32280318     0.15020
H311        H  0.94017885  0.60544358  0.47607181     0.15020
C312        C  0.98023126  0.57835950  0.43247389     0.36670
C313        C  0.83215186  0.56653101  0.37384114     0.36580
N314        N  0.00191353  0.57038797  0.45031795    -0.43670
N315        N  0.79870992  0.55779868  0.36281416    -0.43670
C316        C  0.93671504  0.40196574  0.07006038    -0.00080
C317        C  0.95589675  0.44632936  0.06328525    -0.11960
C318        C  0.97216654  0.47666112  0.09773249     0.02150
C319        C  0.96679582  0.46314971  0.14193844    -0.00170
C320        C  0.94772115  0.41886003  0.14962095    -0.11900
C321        C  0.93361710  0.38843178  0.11424008     0.02040
H322        H  0.95733150  0.45797802  0.03046089     0.15020
H323        H  0.94408607  0.40805379  0.18326150     0.15020
C324        C  0.91738206  0.34416926  0.12449150     0.36670
C325        C  0.99224395  0.52106642  0.08497945     0.36580
N326        N  0.90431367  0.30868900  0.13297978    -0.43670
N327        N  0.00754877  0.55544849  0.07112359    -0.43670
C328        C  0.95432980  0.45002648  0.33457682    -0.00080
C329        C  0.93268066  0.45478213  0.36980773    -0.11960
C330        C  0.92039822  0.42906517  0.40693004     0.02150
C331        C  0.92922166  0.39714399  0.40956246    -0.00170
C332        C  0.94901278  0.39058612  0.37358839    -0.11900
C333        C  0.96154219  0.41684697  0.33605066     0.02040
H334        H  0.92588465  0.47938880  0.36888678     0.15020
H335        H  0.95443965  0.36500259  0.37475607     0.15020
C336        C  0.97873618  0.40743710  0.29832222     0.36670
C337        C  0.89842926  0.43592029  0.44201752     0.36580
N338        N  0.99192697  0.39969251  0.26762592    -0.43670
N339        N  0.88079150  0.44129241  0.47011740    -0.43670
C340        C  0.12934551  0.58416461  0.12214713    -0.00080
C341        C  0.13999001  0.55402108  0.12832016    -0.11960
C342        C  0.16857575  0.55242235  0.09960460     0.02150
C343        C  0.18813694  0.58254226  0.06528498    -0.00170
C344        C  0.18020882  0.61491047  0.06183691    -0.11900
C345        C  0.15032153  0.61519826  0.08894477     0.02040
H346        H  0.12440529  0.53040797  0.15421795     0.15020
H347        H  0.19530846  0.63833858  0.03566888     0.15020
C348        C  0.14103214  0.64707433  0.08101645     0.36670
C349        C  0.17479599  0.51784410  0.10402760     0.36580
N350        N  0.13306506  0.67215236  0.07404115    -0.43670
N351        N  0.17977376  0.49010303  0.10747551    -0.43670
C352        C  0.12985463  0.56407996  0.35073717    -0.00080
C353        C  0.16275639  0.60420798  0.36841561    -0.11960
C354        C  0.19410133  0.60729962  0.39557067     0.02150
C355        C  0.19216259  0.56949372  0.40590627    -0.00170
C356        C  0.16207717  0.53024059  0.38431606    -0.11900
C357        C  0.13100175  0.52738522  0.35645105     0.02040
H358        H  0.16259624  0.63277360  0.36295185     0.15020
H359        H  0.16044290  0.50113927  0.39225707     0.15020
C360        C  0.09959663  0.48617445  0.33613828     0.36670
C361        C  0.22528703  0.64873106  0.41615034     0.36580
N362        N  0.07514283  0.45281911  0.31979840    -0.43670
N363        N  0.25011194  0.68188583  0.43275104    -0.43670
C364        C  0.11648753  0.71229106  0.16105615    -0.00080
C365        C  0.16177032  0.74115105  0.16354840    -0.11960
C366        C  0.18523152  0.77170639  0.13048381     0.02150
C367        C  0.16329359  0.77427444  0.09463154    -0.00170
C368        C  0.11826693  0.74968755  0.09518367    -0.11900
C369        C  0.09479453  0.71860745  0.12726585     0.02040
H370        H  0.17926556  0.73755937  0.18932699     0.15020
H371        H  0.10127540  0.75200660  0.06783075     0.15020
C372        C  0.04899750  0.69060265  0.12039147     0.36670
C373        C  0.23163624  0.79734658  0.13209449     0.36580
N374        N  0.01256132  0.66849399  0.11287699    -0.43670
N375        N  0.26886693  0.81805905  0.13342164    -0.43670
C376        C  0.11913460  0.69002789  0.36296882    -0.00080
C377        C  0.15245217  0.73284867  0.35337458    -0.11960
C378        C  0.17462299  0.76424899  0.38741087     0.02150
C379        C  0.15998555  0.75435513  0.43210116    -0.00170
C380        C  0.12489212  0.71127742  0.43977988    -0.11900
C381        C  0.10928893  0.67903689  0.40732996     0.02040
H382        H  0.16275419  0.74118464  0.31945480     0.15020
H383        H  0.11059789  0.70061660  0.47186929     0.15020
C384        C  0.09447385  0.63623895  0.42184643     0.36670
C385        C  0.21349073  0.80435051  0.37460555     0.36580
N386        N  0.08670797  0.60359858  0.43474176    -0.43670
N387        N  0.24460768  0.83610251  0.36325494    -0.43670
C388        C  0.72158682  0.19274036  0.07217239    -0.00080
C389        C  0.74150322  0.20884170  0.11411036    -0.11960
C390        C  0.71719347  0.19715284  0.15326238     0.02150
C391        C  0.67254121  0.16652317  0.15147557    -0.00170
C392        C  0.65313111  0.14799414  0.11081402    -0.11900
C393        C  0.67605020  0.16234250  0.07154642     0.02040
H394        H  0.77611651  0.23085070  0.11678571     0.15020
H395        H  0.61893707  0.12324891  0.10927376     0.15020
C396        C  0.65005472  0.14664286  0.03210944     0.36670
C397        C  0.73853382  0.21627914  0.19480502     0.36580
N398        N  0.62820731  0.13290843  0.50121067    -0.43670
N399        N  0.75540721  0.23156891  0.22824014    -0.43670
C400        C  0.72875570  0.18895872  0.40992731    -0.00080
C401        C  0.71555832  0.14955645  0.38875498    -0.11960
C402        C  0.68683437  0.13395319  0.35277079     0.02150
C403        C  0.67049509  0.15785476  0.33776030    -0.00170
C404        C  0.68622272  0.19859366  0.35742846    -0.11900
C405        C  0.71411841  0.21370350  0.39357704     0.02040
H406        H  0.72691366  0.13055895  0.40094968     0.15020
H407        H  0.67406878  0.21742269  0.34694669     0.15020
C408        C  0.72400646  0.25289469  0.41597883     0.36670
C409        C  0.67465642  0.09336533  0.33209553     0.36580
N410        N  0.73160133  0.28396028  0.93431986    -0.43670
N411        N  0.66503101  0.06094472  0.31531390    -0.43670
C412        C  0.51582475  0.21358513  0.07793497    -0.00080
C413        C  0.55796287  0.22402625  0.07933517    -0.11960
C414        C  0.56830078  0.20041146  0.10502656     0.02150
C415        C  0.53585641  0.16506951  0.12945248    -0.00170
C416        C  0.49398942  0.15573698  0.12940250    -0.11900
C417        C  0.48376548  0.17955374  0.10368095     0.02040
H418        H  0.58257969  0.24988583  0.05897530     0.15020
H419        H  0.46926807  0.12978346  0.14957315     0.15020
C420        C  0.44022727  0.16834158  0.10360020     0.36670
C421        C  0.61284478  0.21497949  0.10740861     0.36580
N422        N  0.40541092  0.15964408  0.10367085    -0.43670
N423        N  0.64902584  0.22828978  0.10900545    -0.43670
C424        C  0.51862452  0.21674719  0.42305944    -0.00080
C425        C  0.55020111  0.20850370  0.43074123    -0.11960
C426        C  0.55771003  0.18505102  0.40059486     0.02150
C427        C  0.53552961  0.17176371  0.36002956    -0.00170
C428        C  0.50793136  0.18485129  0.34994889    -0.11900
C429        C  0.49848203  0.20628788  0.38155946     0.02040
H430        H  0.56729354  0.21815207  0.46200053     0.15020
H431        H  0.49221139  0.17665742  0.31807004     0.15020
C432        C  0.46667441  0.21506776  0.37148307     0.36670
C433        C  0.58771102  0.17451809  0.41305410     0.36580
N434        N  0.44125429  0.22223675  0.36334321    -0.43670
N435        N  0.61133541  0.16566692  0.42346781    -0.43670
C436        C  0.36977572  0.98062031  0.07127977    -0.00080
C437        C  0.40687050  0.98122158  0.06384839    -0.11960
C438        C  0.43933570  0.99746279  0.09529347     0.02150
C439        C  0.43524489  0.01358127  0.13664373    -0.00170
C440        C  0.39723729  0.01171117  0.14479321    -0.11900
C441        C  0.36460067  0.99538801  0.11249810     0.02040
H442        H  0.41058495  0.96875380  0.03275442     0.15020
H443        H  0.39321415  0.02350819  0.17610419     0.15020
C444        C  0.32675950  0.99511029  0.12190260     0.36670
C445        C  0.47614010  0.99653578  0.08312316     0.36580
N446        N  0.29634180  0.99479207  0.12946811    -0.43670
N447        N  0.50553524  0.99595467  0.07274295    -0.43670
C448        C  0.35146503  0.96654967  0.41198049    -0.00080
C449        C  0.36964501  0.00743346  0.39341498    -0.11960
C450        C  0.39777270  0.02029494  0.35748213     0.02150
C451        C  0.40890761  0.99241604  0.34023588    -0.00170
C452        C  0.38836322  0.95042877  0.35686823    -0.11900
C453        C  0.36001290  0.93737668  0.39251454     0.02040
H454        H  0.36273181  0.02972721  0.40778549     0.15020
H455        H  0.39664615  0.92869606  0.34394814     0.15020
C456        C  0.34306921  0.89523598  0.41080698     0.36670
C457        C  0.41378464  0.06166297  0.33810729     0.36580
N458        N  0.32946381  0.86148230  0.42547697    -0.43670
N459        N  0.42572385  0.09438419  0.32193630    -0.43670
C460        C  0.52842566  0.91092198  0.09460755    -0.00080
C461        C  0.56687873  0.93860169  0.11785061    -0.11960
C462        C  0.56810889  0.96216196  0.15497177     0.02150
C463        C  0.53004567  0.95800101  0.16958797    -0.00170
C464        C  0.49078951  0.92673411  0.14876676    -0.11900
C465        C  0.48984507  0.90366192  0.11122339     0.02040
H466        H  0.59656106  0.94383597  0.10532174     0.15020
H467        H  0.46116284  0.92267049  0.15957176     0.15020
C468        C  0.44935683  0.87431988  0.08901242     0.36670
C469        C  0.60931414  0.99185924  0.17586728     0.36580
N470        N  0.41688568  0.85071905  0.07124175    -0.43670
N471        N  0.64238986  0.01578470  0.19243954    -0.43670
C472        C  0.54302562  0.98680155  0.36860120    -0.00080
C473        C  0.57137909  0.00646346  0.40461998    -0.11960
C474        C  0.57344941  0.98174405  0.43709257     0.02150
C475        C  0.54671574  0.93606535  0.43417851    -0.00170
C476        C  0.52099245  0.91620506  0.39636683    -0.11900
C477        C  0.51900940  0.94120632  0.36354555     0.02040
H478        H  0.59108288  0.04151978  0.40832588     0.15020
H479        H  0.50078551  0.88112135  0.39359767     0.15020
C480        C  0.49019269  0.91924393  0.32669466     0.36670
C481        C  0.60266593  0.00414909  0.47367817     0.36580
N482        N  0.46722073  0.90173141  0.29702231    -0.43670
N483        N  0.62590327  0.02206604  0.00307944    -0.43670
C484        C  0.55047501  0.85397550  0.50417131     0.03200
C485        C  0.55239590  0.87804965  0.96752026    -0.12950
C486        C  0.54272171  0.90925201  0.97196821     0.00700
C487        C  0.53147416  0.91709598  0.01340335    -0.11470
C488        C  0.53106263  0.89524167  0.55034661     0.03190
C489        C  0.53929902  0.86320196  0.54557441    -0.10890
H490        H  0.56291352  0.87432810  0.93558310     0.08790
H491        H  0.52505170  0.94189912  0.01733704     0.06320
H492        H  0.53708017  0.84637786  0.57498473     0.06160
C493        C  0.32904960  0.95704389  0.95498475     0.03200
C494        C  0.35324127  0.97995693  0.99225661    -0.12950
C495        C  0.33800034  0.96400761  0.53451295     0.00700
C496        C  0.29651043  0.92610818  0.53922829    -0.11470
C497        C  0.27003430  0.90315315  0.50200499     0.03190
C498        C  0.28719436  0.92014103  0.95989673    -0.10890
H499        H  0.38615154  0.00762783  0.98819562     0.08790
H500        H  0.28744433  0.91309099  0.57188065     0.06320
H501        H  0.27039786  0.90363744  0.92995873     0.06160
O502        O  0.54212531  0.04869062  0.85900247    -0.80060
O503        O  0.62588462  0.11324913  0.70090342    -0.80090
O504        O  0.49687985  0.98508246  0.71436664    -0.80100
O505        O  0.62193692  0.16374171  0.79266782    -0.80040
O506        O  0.56575443  0.02737873  0.70534201    -0.80160
O507        O  0.60770402  0.09841031  0.80214586    -0.80080
O508        O  0.62683363  0.17184955  0.70218529    -0.80060
O509        O  0.52614041  0.00743950  0.79959403    -0.80100
C510        C  0.53619760  0.01498672  0.84115300     1.09630
C511        C  0.64372561  0.15183099  0.69004176     1.09510
C512        C  0.53127083  0.99053761  0.69994586     1.09650
C513        C  0.63260006  0.13915115  0.80756307     1.09530
O514        O  0.55504301  0.12291754  0.83937362    -0.80070
O515        O  0.50614922  0.03916028  0.65843235    -0.80140
O516        O  0.44454377  0.98190144  0.78088237    -0.80080
O517        O  0.53895911  0.14708027  0.70126229    -0.80060
O518        O  0.56472892  0.12424319  0.65078162    -0.80110
O519        O  0.47962868  0.04690281  0.81355926    -0.80080
O520        O  0.53434190  0.14591051  0.78783308    -0.80030
O521        O  0.46380975  0.03651485  0.71102521    -0.80100
Co522      Co  0.54523641  0.07244399  0.80413593     1.51530
Co523      Co  0.56573193  0.07643362  0.68226442     1.51690
Co524      Co  0.49671618  0.02757020  0.75587997     1.51570
Co525      Co  0.57825463  0.15306292  0.74622904     1.51470
O526        O  0.54887554  0.08729893  0.74123788    -1.42000
C527        C  0.54127843  0.14520478  0.82783007     1.09550
C528        C  0.47012371  0.03157563  0.67063102     1.09640
C529        C  0.44552586  0.00763699  0.80967178     1.09580
C530        C  0.54615539  0.14319643  0.66167095     1.09550
C531        C  0.50660290  0.28903208  0.00315638     0.03200
C532        C  0.50669908  0.26970964  0.96241334    -0.12950
C533        C  0.50506121  0.23117484  0.96156931     0.00700
C534        C  0.49886101  0.20955609  0.00066386    -0.11470
C535        C  0.50476589  0.23038636  0.54078052     0.03190
C536        C  0.50913182  0.27023087  0.54235920    -0.10890
H537        H  0.50968307  0.28466963  0.93138838     0.08790
H538        H  0.49654760  0.17919134  0.99990286     0.06320
H539        H  0.51597015  0.28654265  0.57402363     0.06160
C540        C  0.75488074  0.20335736  0.95104273     0.03200
C541        C  0.79510557  0.24272229  0.95165908    -0.12950
C542        C  0.81247268  0.26752960  0.49094682     0.00700
C543        C  0.78702545  0.25118687  0.52951624    -0.11470
C544        C  0.74843592  0.20913877  0.53054493     0.03190
C545        C  0.73484785  0.18447226  0.99087499    -0.10890
H546        H  0.81101727  0.25398079  0.92033887     0.08790
H547        H  0.79617459  0.27162955  0.55848315     0.06320
H548        H  0.70727722  0.15139893  0.98952683     0.06160
O549        O  0.05847180  0.62608422  0.83124741    -0.80060
O550        O  0.98605342  0.56975583  0.65348751    -0.80090
O551        O  0.11631587  0.66242143  0.70986742    -0.80100
O552        O  0.95622187  0.57483591  0.79564812    -0.80040
O553        O  0.05525645  0.64333608  0.68340025    -0.80160
O554        O  0.98585724  0.55639201  0.84436234    -0.80080
O555        O  0.95812767  0.58256736  0.70897796    -0.80060
O556        O  0.11835484  0.65355570  0.79702255    -0.80100
C557        C  0.09750782  0.65571641  0.82808941     1.09630
C558        C  0.95853734  0.57621266  0.66859682     1.09510
C559        C  0.09461792  0.67171969  0.68741762     1.09650
C560        C  0.96120358  0.56869261  0.83512982     1.09530
O561        O  0.00930181  0.50583873  0.78921393    -0.80070
O562        O  0.07048940  0.59037738  0.63624311    -0.80140
O563        O  0.09361317  0.56445438  0.78686026    -0.80080
O564        O  0.95171089  0.50058303  0.69637570    -0.80060
O565        O  0.01825619  0.52138072  0.68810954    -0.80110
O566        O  0.06450440  0.55987445  0.85251731    -0.80080
O567        O  0.94616842  0.49412283  0.78737451    -0.80030
O568        O  0.09770025  0.57698921  0.69294067    -0.80100
Co569      Co  0.03604172  0.56776306  0.80663189     1.51530
Co570      Co  0.03849436  0.58333745  0.68806701     1.51690
Co571      Co  0.09673061  0.61033871  0.74713029     1.51570
Co572      Co  0.95834173  0.54110936  0.74690359     1.51470
O573        O  0.02567821  0.58315134  0.74986240    -1.42000
C574        C  0.97004554  0.48230050  0.79903352     1.09550
C575        C  0.09800916  0.58431317  0.65153876     1.09640
C576        C  0.09411420  0.56220466  0.82925053     1.09580
C577        C  0.97916222  0.49481328  0.67913271     1.09550
C578        C  0.26125762  0.56415821  0.99366141     0.03200
C579        C  0.24418983  0.57284596  0.53119706    -0.12950
C580        C  0.20889539  0.57595860  0.52725805     0.00700
C581        C  0.19209211  0.57306341  0.98580087    -0.11470
C582        C  0.21009754  0.56798164  0.94815334     0.03190
C583        C  0.24328034  0.56165671  0.95180935    -0.10890
H584        H  0.25787849  0.57770586  0.56361507     0.08790
H585        H  0.16470111  0.57537761  0.98254926     0.06320
H586        H  0.25422688  0.55463334  0.92193358     0.06160
C587        C  0.91576814  0.37003029  0.94940598     0.03200
C588        C  0.93857189  0.38838554  0.98869674    -0.12950
C589        C  0.91863488  0.37230344  0.52991442     0.00700
C590        C  0.87788394  0.33247635  0.53042922    -0.11470
C591        C  0.85574238  0.31068623  0.49081173     0.03190
C592        C  0.87472029  0.33167615  0.95067082    -0.10890
H593        H  0.97017437  0.41841229  0.98691310     0.08790
H594        H  0.86284148  0.31989189  0.56174295     0.06320
H595        H  0.85710717  0.32052080  0.92001192     0.06160
C596        C  0.81352013  0.60565916  0.00383781     0.03200
C597        C  0.83757315  0.60671852  0.96670933    -0.12950
C598        C  0.86102713  0.58778290  0.96822675     0.00700
C599        C  0.86157973  0.56933712  0.00740255    -0.11470
C600        C  0.84528507  0.57510669  0.54605608     0.03190
C601        C  0.81963180  0.59129785  0.54417810    -0.10890
H602        H  0.83916192  0.62286125  0.93694016     0.08790
H603        H  0.87891823  0.55401777  0.00897085     0.06320
H604        H  0.80534546  0.59253273  0.57459120     0.06160
C605        C  0.18092589  0.78518536  0.97187863     0.03200
C606        C  0.20802867  0.83079856  0.96885355    -0.12950
C607        C  0.22946476  0.85795179  0.50644840     0.00700
C608        C  0.21367832  0.83966734  0.54834985    -0.11470
C609        C  0.18462440  0.79496811  0.55234798     0.03190
C610        C  0.17267063  0.76839485  0.01474903    -0.10890
H611        H  0.21161912  0.84508769  0.93766727     0.08790
H612        H  0.22323258  0.85937384  0.57804191     0.06320
H613        H  0.15540058  0.73418986  0.02028411     0.06160
O614        O  0.48778065  0.49258484  0.70590405    -0.80060
O615        O  0.47309733  0.53939798  0.81139194    -0.80090
O616        O  0.53321966  0.50970802  0.79771720    -0.80100
O617        O  0.46811297  0.60160545  0.70756590    -0.80040
O618        O  0.53825216  0.54511407  0.85860686    -0.80160
O619        O  0.44757603  0.53425922  0.70210437    -0.80080
O620        O  0.47815508  0.60042882  0.79769129    -0.80060
O621        O  0.55293576  0.50975451  0.71121787    -0.80100
C622        C  0.51449263  0.48295436  0.69877451     1.09630
C623        C  0.46019775  0.56413638  0.81746163     1.09510
C624        C  0.53350790  0.51206438  0.84031700     1.09650
C625        C  0.44028426  0.56270908  0.69523166     1.09530
O626        O  0.51822165  0.60272303  0.65008964    -0.80070
O627        O  0.60264922  0.60145850  0.80627782    -0.80140
O628        O  0.60890403  0.60115772  0.70684086    -0.80080
O629        O  0.57226233  0.66188628  0.78452393    -0.80060
O630        O  0.54528314  0.61860114  0.83899241    -0.80110
O631        O  0.55966355  0.56260574  0.65582371    -0.80080
O632        O  0.56031150  0.65564843  0.69719564    -0.80030
O633        O  0.61630947  0.55709770  0.77349956    -0.80100
Co634      Co  0.50397080  0.54869192  0.68224664     1.51530
Co635      Co  0.53571567  0.56785032  0.80453305     1.51690
Co636      Co  0.57044994  0.55978783  0.75245464     1.51570
Co637      Co  0.52090340  0.62736471  0.74676072     1.51470
O638        O  0.52953527  0.57804811  0.74119343    -1.42000
C639        C  0.54577308  0.64286927  0.65880420     1.09550
C640        C  0.62590052  0.58595105  0.80278591     1.09640
C641        C  0.59910019  0.58766435  0.66720722     1.09580
C642        C  0.56427332  0.65647504  0.82477087     1.09550
C643        C  0.50577003  0.32907046  0.50511032     0.03200
C644        C  0.49691773  0.34229116  0.54540555    -0.12950
C645        C  0.49718919  0.37987772  0.54867585     0.00700
C646        C  0.50430423  0.40390359  0.51097431    -0.11470
C647        C  0.51217090  0.39142926  0.97025488     0.03190
C648        C  0.51323057  0.35439240  0.96738731    -0.10890
H649        H  0.48943068  0.32374405  0.57495481     0.08790
H650        H  0.50504518  0.43333587  0.51352114     0.06320
H651        H  0.52115050  0.34689233  0.93582737     0.06160
C652        C  0.29634550  0.55643738  0.49819433     0.03200
C653        C  0.32068684  0.55845610  0.96128590    -0.12950
C654        C  0.34989255  0.54627194  0.96399211     0.00700
C655        C  0.35760678  0.53596521  0.50577771    -0.11470
C656        C  0.33801622  0.53906686  0.54379326     0.03190
C657        C  0.30607965  0.54708214  0.53951194    -0.10890
H658        H  0.31828162  0.57100835  0.93061616     0.08790
H659        H  0.38068806  0.52761107  0.50944707     0.06320
H660        H  0.28947203  0.54599154  0.56914161     0.06160
C661        C  0.78182428  0.61823502  0.50006208     0.03200
C662        C  0.76187392  0.62305875  0.53761770    -0.12950
C663        C  0.72761764  0.62790841  0.53308710     0.00700
C664        C  0.71547273  0.63174791  0.49091698    -0.11470
C665        C  0.73436153  0.62713032  0.95336574     0.03190
C666        C  0.76695479  0.62003952  0.95808745    -0.10890
H667        H  0.77027954  0.62029022  0.57061492     0.08790
H668        H  0.68804237  0.63388164  0.48727797     0.06320
H669        H  0.77843272  0.61342830  0.92837453     0.06160
C670        C  0.57416801  0.76949426  0.53319335     0.03200
C671        C  0.56782445  0.80301215  0.53728575    -0.12950
C672        C  0.56112155  0.82054580  0.49962603     0.00700
C673        C  0.56264204  0.80389113  0.95770883    -0.11470
C674        C  0.57237328  0.77277210  0.95397934     0.03190
C675        C  0.57853169  0.75628143  0.49159515    -0.10890
H676        H  0.56714970  0.81375262  0.57029573     0.08790
H677        H  0.55459796  0.81309280  0.92785633     0.06320
H678        H  0.58270075  0.72982584  0.48831873     0.06160
C679        C  0.43013211  0.55532390  0.85427944    -0.00080
C680        C  0.38779840  0.54247456  0.84591022    -0.11960
C681        C  0.36024127  0.53760523  0.88067866     0.02150
C682        C  0.37598052  0.54853273  0.92477126    -0.00170
C683        C  0.41868327  0.56217857  0.93222469    -0.11900
C684        C  0.44476926  0.56367724  0.89843856     0.02040
H685        H  0.37605045  0.53564132  0.81222250     0.15020
H686        H  0.43254766  0.57243745  0.96494024     0.15020
C687        C  0.48690814  0.57535943  0.91136774     0.36670
C688        C  0.31592370  0.52001488  0.86991321     0.36580
N689        N  0.51999230  0.58502469  0.92474802    -0.43670
N690        N  0.28044305  0.50592561  0.86096708    -0.43670
C691        C  0.40476023  0.55236119  0.66427512    -0.00080
C692        C  0.38485268  0.51341334  0.63921509    -0.11960
C693        C  0.36044628  0.50698295  0.60153241     0.02150
C694        C  0.35517675  0.53968498  0.58814984    -0.00170
C695        C  0.37108572  0.57652038  0.61558172    -0.11900
C696        C  0.39546077  0.58302350  0.65338406     0.02040
H697        H  0.39046338  0.48881279  0.64731881     0.15020
H698        H  0.36653760  0.60156527  0.60609737     0.15020
C699        C  0.41161068  0.62217436  0.67928082     0.36670
C700        C  0.34192591  0.46694751  0.57655823     0.36580
N701        N  0.42456452  0.65363888  0.69989843    -0.43670
N702        N  0.32702392  0.43486212  0.55651836    -0.43670
C703        C  0.56667176  0.69061371  0.85248718    -0.00080
C704        C  0.52910961  0.67993646  0.87468395    -0.11960
C705        C  0.52931261  0.70885277  0.90446569     0.02150
C706        C  0.56777798  0.74965399  0.91240276    -0.00170
C707        C  0.60473478  0.76191036  0.88779945    -0.11900
C708        C  0.60423497  0.73275368  0.85734861     0.02040
H709        H  0.49957268  0.64840352  0.86960236     0.15020
H710        H  0.63455866  0.79301895  0.89446723     0.15020
C711        C  0.64308029  0.74559895  0.83376668     0.36670
C712        C  0.49067109  0.69443810  0.92949090     0.36580
N713        N  0.67415185  0.75584519  0.81469027    -0.43670
N714        N  0.45982719  0.68273455  0.94972208    -0.43670
C715        C  0.55466766  0.67602387  0.62681169    -0.00080
C716        C  0.52341787  0.68500164  0.62163498    -0.11960
C717        C  0.53067570  0.71821481  0.59429242     0.02150
C718        C  0.56977020  0.74273686  0.57089178    -0.00170
C719        C  0.60164175  0.73475539  0.57739977    -0.11900
C720        C  0.59458777  0.70206119  0.60545151     0.02040
H721        H  0.49322130  0.66599427  0.63915564     0.15020
H722        H  0.63162783  0.75326001  0.55928890     0.15020
C723        C  0.62861242  0.69563416  0.61056146     0.36670
C724        C  0.49674075  0.72508347  0.58944419     0.36580
N725        N  0.65711025  0.69208728  0.61357531    -0.43670
N726        N  0.46965332  0.73078390  0.58585712    -0.43670
C727        C  0.71399774  0.62124190  0.90978053    -0.00080
C728        C  0.69794802  0.58215942  0.88641412    -0.11960
C729        C  0.67156930  0.57119782  0.84944122     0.02150
C730        C  0.66111118  0.60001201  0.83483314    -0.00170
C731        C  0.67939688  0.64029881  0.85668791    -0.11900
C732        C  0.70560300  0.65105764  0.89384964     0.02040
H733        H  0.70363501  0.55873169  0.89884928     0.15020
H734        H  0.67170859  0.66273096  0.84587328     0.15020
C735        C  0.72256084  0.69235444  0.91578525     0.36670
C736        C  0.65230904  0.52832190  0.83031553     0.36580
N737        N  0.73608663  0.72538189  0.93349536    -0.43670
N738        N  0.63669164  0.49380373  0.81537643    -0.43670
C739        C  0.69720153  0.61796538  0.57003009    -0.00080
C740        C  0.65436529  0.58345307  0.56320990    -0.11960
C741        C  0.62260269  0.57272841  0.59431928     0.02150
C742        C  0.63308282  0.59710376  0.63427858    -0.00170
C743        C  0.67676832  0.63015544  0.64253184    -0.11900
C744        C  0.70868785  0.64110910  0.61052045     0.02040
H745        H  0.64548214  0.56482247  0.53266252     0.15020
H746        H  0.68577430  0.64871343  0.67318060     0.15020
C747        C  0.75224758  0.67750119  0.61888535     0.36670
C748        C  0.57981846  0.53580914  0.58367901     0.36580
N749        N  0.78714960  0.70684712  0.62550312    -0.43670
N750        N  0.54577283  0.50625118  0.57445191    -0.43670
C751        C  0.53017893  0.47830092  0.86833624    -0.00080
C752        C  0.56061337  0.49230297  0.90227981    -0.11960
C753        C  0.55722078  0.46333398  0.93322131     0.02150
C754        C  0.52185490  0.41963267  0.93181961    -0.00170
C755        C  0.49283059  0.40480681  0.89623618    -0.11900
C756        C  0.49714932  0.43377767  0.86411236     0.02040
H757        H  0.58702614  0.52623079  0.90487067     0.15020
H758        H  0.46579697  0.37113556  0.89465794     0.15020
C759        C  0.46606927  0.41771610  0.82880761     0.36670
C760        C  0.59047282  0.47894398  0.96621911     0.36580
N761        N  0.44131296  0.40493538  0.80032774    -0.43670
N762        N  0.61714277  0.49070160  0.49247522    -0.43670
C763        C  0.50333859  0.44657089  0.66798928    -0.00080
C764        C  0.46890371  0.43188859  0.63841385    -0.11960
C765        C  0.46451678  0.40757487  0.60063350     0.02150
C766        C  0.49444642  0.39685119  0.59227178    -0.00170
C767        C  0.52575636  0.40712147  0.62425259    -0.11900
C768        C  0.53043148  0.43179104  0.66191119     0.02040
H769        H  0.44724665  0.44219255  0.64280035     0.15020
H770        H  0.54835427  0.39819225  0.61845830     0.15020
C771        C  0.56421788  0.44272131  0.69285558     0.36670
C772        C  0.43027222  0.39571373  0.56991675     0.36580
N773        N  0.59122852  0.45142738  0.71773113    -0.43610
N774        N  0.40292413  0.38629017  0.04520767    -0.43670
C775        C  0.92474816  0.57310067  0.64118530    -0.00080
C776        C  0.92049146  0.60812515  0.64159177    -0.11960
C777        C  0.89055223  0.60781174  0.61424274     0.02150
C778        C  0.86279540  0.57091370  0.58756160    -0.00170
C779        C  0.86269299  0.53357663  0.59259513    -0.11900
C780        C  0.89354428  0.53443834  0.61870981     0.02040
H781        H  0.94212001  0.63671433  0.66163889     0.15020
H782        H  0.84055074  0.50465677  0.57314433     0.15020
C783        C  0.89047522  0.49440771  0.62295425     0.36670
C784        C  0.89172552  0.64704220  0.61133927     0.36580
N785        N  0.88527697  0.46089666  0.62576428    -0.43670
N786        N  0.89265929  0.67848729  0.60901607    -0.43670
C787        C  0.93656937  0.57515178  0.86925388    -0.00080
C788        C  0.89885590  0.57214744  0.85656177    -0.11960
C789        C  0.87374821  0.57702714  0.88747108     0.02150
C790        C  0.88829816  0.58897140  0.93138844    -0.00170
C791        C  0.92793346  0.59570402  0.94266671    -0.11900
C792        C  0.94958645  0.58507100  0.91356254     0.02040
H793        H  0.88748866  0.56344812  0.82280266     0.15020
H794        H  0.94017733  0.60544082  0.97607219     0.15020
C795        C  0.98022840  0.57835521  0.93247413     0.36670
C796        C  0.83215224  0.56653240  0.87384041     0.36580
N797        N  0.00190958  0.57038201  0.95031781    -0.43670
N798        N  0.79871070  0.55780094  0.86281309    -0.43670
C799        C  0.93671581  0.40196546  0.57006067    -0.00080
C800        C  0.95589825  0.44632923  0.56328565    -0.11960
C801        C  0.97216789  0.47666085  0.59773300     0.02150
C802        C  0.96679650  0.46314924  0.64193891    -0.00170
C803        C  0.94772130  0.41885944  0.64962132    -0.11900
C804        C  0.93361725  0.38843127  0.61424037     0.02040
H805        H  0.95733361  0.45797816  0.53046130     0.15020
H806        H  0.94408574  0.40805304  0.68326187     0.15020
C807        C  0.91738155  0.34416858  0.62449174     0.36670
C808        C  0.99224580  0.52106626  0.58498007     0.36580
N809        N  0.90431262  0.30868818  0.63297999    -0.43670
N810        N  0.00755101  0.55544841  0.57112426    -0.43670
C811        C  0.95432855  0.45002487  0.83457605    -0.00080
C812        C  0.93267518  0.45477748  0.86980469    -0.11960
C813        C  0.92039260  0.42906058  0.90692707     0.02150
C814        C  0.92922052  0.39714284  0.90956195    -0.00170
C815        C  0.94901610  0.39058800  0.87359015    -0.11900
C816        C  0.96154537  0.41684856  0.83605224     0.02040
H817        H  0.92587645  0.47938213  0.86888214     0.15020
H818        H  0.95444659  0.36500708  0.87475974     0.15020
C819        C  0.97874430  0.40744180  0.79832596     0.36670
C820        C  0.89841941  0.43591253  0.94201235     0.36580
N821        N  0.99193912  0.39969977  0.76763132    -0.43670
N822        N  0.88077824  0.44128204  0.97011050    -0.43670
C823        C  0.12934184  0.58415546  0.62214850    -0.00080
C824        C  0.13997895  0.55400610  0.62832055    -0.11960
C825        C  0.16856088  0.55240164  0.59960427     0.02150
C826        C  0.18812510  0.58252093  0.56528460    -0.00170
C827        C  0.18020395  0.61489411  0.56183683    -0.11900
C828        C  0.15032125  0.61518857  0.58894622     0.02040
H829        H  0.12439154  0.53039332  0.65421828     0.15020
H830        H  0.19530606  0.63832168  0.53566858     0.15020
C831        C  0.14104108  0.64707188  0.58102054     0.36670
C832        C  0.17477445  0.51781881  0.60402667     0.36580
N833        N  0.13308237  0.67215657  0.57404742    -0.43670
N834        N  0.17974688  0.49007407  0.60747404    -0.43670
C835        C  0.12985735  0.56408601  0.85073923    -0.00080
C836        C  0.16275915  0.60421692  0.86841231    -0.11960
C837        C  0.19410734  0.60731401  0.89556655     0.02150
C838        C  0.19217221  0.56951089  0.90590635    -0.00170
C839        C  0.16208644  0.53025458  0.88432137    -0.11900
C840        C  0.13100731  0.52739350  0.85645775     0.02040
H841        H  0.16259659  0.63278067  0.86294519     0.15020
H842        H  0.16045472  0.50115531  0.89226593     0.15020
C843        C  0.09960133  0.48617925  0.83615176     0.36670
C844        C  0.22529283  0.64874838  0.91614113     0.36580
N845        N  0.07514680  0.45282091  0.81981782    -0.43670
N846        N  0.25011754  0.68190555  0.93273773    -0.43670
C847        C  0.11648841  0.71228949  0.66105548    -0.00080
C848        C  0.16177096  0.74115091  0.66354939    -0.11960
C849        C  0.18523258  0.77170624  0.63048488     0.02150
C850        C  0.16329521  0.77427285  0.59463110    -0.00170
C851        C  0.11826848  0.74968437  0.59518140    -0.11900
C852        C  0.09479577  0.71860410  0.62726326     0.02040
H853        H  0.17926584  0.73756041  0.68932935     0.15020
H854        H  0.10127737  0.75200229  0.56782728     0.15020
C855        C  0.04899918  0.69059722  0.62038646     0.36670
C856        C  0.23163728  0.79734786  0.63209728     0.36580
N857        N  0.01256350  0.66848684  0.61286991    -0.43670
N858        N  0.26886794  0.81806142  0.63342580    -0.43670
C859        C  0.11913284  0.69002785  0.86296924    -0.00080
C860        C  0.15245073  0.73284849  0.85337486    -0.11960
C861        C  0.17462118  0.76424911  0.88741101     0.02150
C862        C  0.15998304  0.75435580  0.93210115    -0.00170
C863        C  0.12488912  0.71127832  0.93977987    -0.11900
C864        C  0.10928637  0.67903741  0.90733040     0.02040
H865        H  0.16275334  0.74118407  0.81945518     0.15020
H866        H  0.11059424  0.70061790  0.97186911     0.15020
C867        C  0.09447130  0.63623971  0.92184767     0.36670
C868        C  0.21348926  0.80435036  0.87460576     0.36580
N869        N  0.08670567  0.60359960  0.93474352    -0.43670
N870        N  0.24460650  0.83610211  0.86325519    -0.43670
C871        C  0.72158720  0.19274055  0.57217225    -0.00080
C872        C  0.74150358  0.20884209  0.61411020    -0.11960
C873        C  0.71719384  0.19715318  0.65326224     0.02150
C874        C  0.67254162  0.16652327  0.65147549    -0.00170
C875        C  0.65313156  0.14799404  0.61081399    -0.11900
C876        C  0.67605061  0.16234237  0.57154635     0.02040
H877        H  0.77611685  0.23085129  0.61678553     0.15020
H878        H  0.61893753  0.12324868  0.60927380     0.15020
C879        C  0.65005510  0.14664230  0.53210941     0.36670
C880        C  0.73853417  0.21627968  0.69480484     0.36580
N881        N  0.62820696  0.13290937  0.00121066    -0.43670
N882        N  0.75540754  0.23156961  0.72823993    -0.43670
C883        C  0.72875583  0.18895816  0.90992737    -0.00080
C884        C  0.71555721  0.14955513  0.88875606    -0.11960
C885        C  0.68683337  0.13395194  0.85277179     0.02150
C886        C  0.67049534  0.15785432  0.83776024    -0.00170
C887        C  0.68622429  0.19859395  0.85742732    -0.11900
C888        C  0.71411994  0.21370378  0.89357594     0.02040
H889        H  0.72691149  0.13055698  0.90095162     0.15020
H890        H  0.67407139  0.21742366  0.84694469     0.15020
C891        C  0.72400928  0.25289591  0.91597662     0.36670
C892        C  0.67465415  0.09336323  0.83209766     0.36580
N893        N  0.73159747  0.28395828  0.43432298    -0.43670
N894        N  0.66502774  0.06094193  0.81531696    -0.43670
C895        C  0.51582432  0.21358463  0.57793474    -0.00080
C896        C  0.55796247  0.22402578  0.57933457    -0.11960
C897        C  0.56830065  0.20041122  0.60502599     0.02150
C898        C  0.53585654  0.16506951  0.62945234    -0.00170
C899        C  0.49398951  0.15573689  0.62940267    -0.11900
C900        C  0.48376530  0.17955339  0.60368106     0.02040
H901        H  0.58257908  0.24988520  0.55897441     0.15020
H902        H  0.46926837  0.12978353  0.64957361     0.15020
C903        C  0.44022706  0.16834115  0.60360064     0.36670
C904        C  0.61284466  0.21497920  0.60740759     0.36580
N905        N  0.40541067  0.15964357  0.60367155    -0.43670
N906        N  0.64902571  0.22828940  0.60900410    -0.43670
C907        C  0.51862578  0.21674841  0.92305935    -0.00080
C908        C  0.55020266  0.20850526  0.93074085    -0.11960
C909        C  0.55771145  0.18505249  0.90059447     0.02150
C910        C  0.53553055  0.17176469  0.86002945    -0.00170
C911        C  0.50793204  0.18485200  0.84994897    -0.11900
C912        C  0.49848286  0.20628869  0.88155957     0.02040
H913        H  0.56729539  0.21815393  0.96199999     0.15020
H914        H  0.49221173  0.17665779  0.81807029     0.15020
C915        C  0.46667492  0.21506819  0.87148347     0.36670
C916        C  0.58771284  0.17451998  0.91305337     0.36580
N917        N  0.44125452  0.22223687  0.86334384    -0.43670
N918        N  0.61133758  0.16566920  0.92346686    -0.43670
C919        C  0.36977600  0.98062085  0.57127983    -0.00080
C920        C  0.40687079  0.98122214  0.56384843    -0.11960
C921        C  0.43933599  0.99746333  0.59529350     0.02150
C922        C  0.43524517  0.01358181  0.63664377    -0.00170
C923        C  0.39723760  0.01171174  0.64479326    -0.11900
C924        C  0.36460096  0.99538856  0.61249816     0.02040
H925        H  0.41058522  0.96875435  0.53275446     0.15020
H926        H  0.39321446  0.02350876  0.67610424     0.15020
C927        C  0.32675977  0.99511080  0.62190267     0.36670
C928        C  0.47614035  0.99653624  0.58312321     0.36580
N929        N  0.29634206  0.99479256  0.62946817    -0.43670
N930        N  0.50553545  0.99595505  0.57274302    -0.43670
C931        C  0.35146481  0.96654978  0.91198030    -0.00080
C932        C  0.36964496  0.00743370  0.89341505    -0.11960
C933        C  0.39777277  0.02029535  0.85748229     0.02150
C934        C  0.40890764  0.99241647  0.84023587    -0.00170
C935        C  0.38836307  0.95042907  0.85686795    -0.11900
C936        C  0.36001261  0.93737682  0.89251417     0.02040
H937        H  0.36273182  0.02972744  0.90778572     0.15020
H938        H  0.39664594  0.92869635  0.84394772     0.15020
C939        C  0.34306871  0.89523597  0.91080634     0.36670
C940        C  0.41378487  0.06166352  0.83810773     0.36580
N941        N  0.32946315  0.86148218  0.92547612    -0.43670
N942        N  0.42572420  0.09438487  0.82193697    -0.43670
C943        C  0.52842526  0.91092183  0.59460775    -0.00080
C944        C  0.56687840  0.93860156  0.61785069    -0.11960
C945        C  0.56810870  0.96216197  0.65497180     0.02150
C946        C  0.53004556  0.95800113  0.66958807    -0.00170
C947        C  0.49078933  0.92673426  0.64876697    -0.11900
C948        C  0.48984474  0.90366193  0.61122365     0.02040
H949        H  0.59656066  0.94383573  0.60532178     0.15020
H950        H  0.46116271  0.92267074  0.65957201     0.15020
C951        C  0.44935643  0.87431990  0.58901279     0.36670
C952        C  0.60931402  0.99185923  0.67586719     0.36580
N953        N  0.41688522  0.85071907  0.57124222    -0.43670
N954        N  0.64238979  0.01578469  0.69243936    -0.43670
C955        C  0.54302588  0.98680207  0.86860120    -0.00080
C956        C  0.57137934  0.00646407  0.90461998    -0.11960
C957        C  0.57344989  0.98174476  0.93709250     0.02150
C958        C  0.54671644  0.93606606  0.93417837    -0.00170
C959        C  0.52099318  0.91620568  0.89636670    -0.11900
C960        C  0.51900991  0.94120685  0.86354548     0.02040
H961        H  0.59108295  0.04152039  0.90832592     0.15020
H962        H  0.50078641  0.88112197  0.89359750     0.15020
C963        C  0.49019323  0.91924438  0.82669459     0.36670
C964        C  0.60266637  0.00414988  0.97367810     0.36580
N965        N  0.46722128  0.90173180  0.79702224    -0.43670
N966        N  0.62590285  0.02206520  0.50307950    -0.43670
loop_ 
_geom_bond_atom_site_label_1 
_geom_bond_atom_site_label_2 
_geom_bond_distance 
_geom_bond_site_symmetry_2 
_ccdc_geom_bond_type 
C1            C6   1.418       .  A
C1          C485   1.420   1_554  A
C1          C189   1.512   1_554  S
C2            C3   1.405       .  A
C2          C484   1.420       .  A
C2            H7   1.079       .  S
C3            C4   1.401       .  A
C3          C475   1.488       .  S
C4          C488   1.395       .  A
C4            H8   1.084       .  S
C5            C6   1.398       .  A
C5          C487   1.395       .  A
C5          C460   1.480       .  S
C6            H9   1.077       .  S
C10          C11   1.394       .  A
C10          C15   1.400       .  A
C10         C448   1.484       .  S
C11         C495   1.401       .  A
C11          H16   1.084   1_565  S
C12          C13   1.405       .  A
C12         C494   1.401   1_554  A
C12         C436   1.490       .  S
C13          C14   1.422       .  A
C13          H17   1.078       .  S
C14         C498   1.418   1_554  A
C14         C124   1.516       .  S
C15         C497   1.418       .  A
C15          H18   1.074       .  S
O19          C27   1.258       .  A
O19         Co39   1.875       .  S
O20          C28   1.249       .  A
O20         Co40   1.953       .  S
O21          C29   1.265       .  A
O21         Co41   2.008   1_565  S
O22          C30   1.281       .  A
O22         Co42   2.031       .  S
O23          C29   1.259   1_545  A
O23         Co40   1.973       .  S
O24          C30   1.267       .  A
O24         Co39   1.973       .  S
O25          C28   1.270       .  A
O25         Co42   2.041       .  S
O26          C27   1.300       .  A
O26         Co41   2.133       .  S
C27         C472   1.486   1_545  S
C28         C391   1.476       .  S
C29         C463   1.489       .  S
C30         C403   1.495       .  S
O31          C44   1.257       .  A
O31         Co39   1.993       .  S
O32          C45   1.270       .  A
O32         Co40   1.989       .  S
O33          C46   1.270   1_565  A
O33         Co41   1.894   1_565  S
O34          C47   1.253       .  A
O34         Co42   1.936       .  S
O35          C47   1.280       .  A
O35         Co40   2.059       .  S
O36          C46   1.298       .  A
O36         Co39   2.103       .  S
O37          C44   1.248       .  A
O37         Co42   1.967       .  S
O38          C45   1.276       .  A
O38         Co41   2.002       .  S
Co39         O43   1.981       .  S
Co40         O43   2.003       .  S
Co41         O43   2.028       .  S
Co42         O43   2.050       .  S
C44         C427   1.477       .  S
C45         C439   1.497       .  S
C46         C451   1.482   1_545  S
C47         C415   1.472       .  S
C48          C49   1.420       .  A
C48         C536   1.424       .  A
C48         C643   1.511       .  S
C49          C50   1.403       .  A
C49          H54   1.077       .  S
C50          C51   1.391       .  A
C50         C424   1.479       .  S
C51         C535   1.382       .  A
C51          H55   1.086       .  S
C52          C53   1.400       .  A
C52         C534   1.382       .  A
C52         C412   1.473       .  S
C53         C531   1.424       .  A
C53          H56   1.080       .  S
C57          C58   1.394       .  A
C57          C62   1.395       .  A
C57         C400   1.487       .  S
C58         C542   1.413       .  A
C58          H63   1.078       .  S
C59          C60   1.418   1_556  A
C59         C541   1.413       .  A
C59         C108   1.513       .  S
C60          C61   1.416       .  A
C60          H64   1.076       .  S
C61         C545   1.413   1_554  A
C61         C388   1.518       .  S
C62         C544   1.413       .  A
C62          H65   1.076       .  S
O66          C74   1.249       .  A
O66         Co86   1.971       .  S
O67          C75   1.267       .  A
O67         Co87   2.033   1_655  S
O68          C76   1.260       .  A
O68         Co88   2.015       .  S
O69          C77   1.260       .  A
O69         Co89   1.953       .  S
O70          C76   1.249       .  A
O70         Co87   1.962       .  S
O71          C77   1.279       .  A
O71         Co86   2.032   1_655  S
O72          C75   1.246       .  A
O72         Co89   1.950       .  S
O73          C74   1.251       .  A
O73         Co88   2.001       .  S
C74         C376   1.487       .  S
C75         C292   1.472       .  S
C76         C364   1.498       .  S
C77         C304   1.487       .  S
O78          C91   1.257   1_455  A
O78         Co86   1.994       .  S
O79          C92   1.270       .  A
O79         Co87   1.902       .  S
O80          C93   1.293       .  A
O80         Co88   2.063       .  S
O81          C94   1.273       .  A
O81         Co89   2.047       .  S
O82          C94   1.254   1_455  A
O82         Co87   1.986       .  S
O83          C93   1.274       .  A
O83         Co86   1.889       .  S
O84          C91   1.258       .  A
O84         Co89   1.992       .  S
O85          C92   1.290       .  A
O85         Co88   2.055       .  S
Co86         O90   1.938       .  S
Co87         O90   1.932       .  S
Co88         O90   2.262       .  S
Co89         O90   2.098   1_655  S
C91         C328   1.485       .  S
C92         C340   1.473       .  S
C93         C352   1.464       .  S
C94         C319   1.492       .  S
C95         C100   1.421       .  A
C95         C579   1.422       .  A
C95         C652   1.507       .  S
C96          C97   1.401       .  A
C96         C578   1.422   1_554  A
C96         H101   1.079       .  S
C97         C581   1.388   1_554  A
C97         C343   1.480       .  S
C98          C99   1.386       .  A
C98         C580   1.388       .  A
C98         H102   1.086       .  S
C99         C100   1.399       .  A
C99         C355   1.471       .  S
C100        H103   1.080       .  S
C104        C105   1.397       .  A
C104        C109   1.395       .  A
C104        C331   1.485       .  S
C105        C589   1.412       .  A
C105        H110   1.083       .  S
C106        C107   1.412       .  A
C106        C588   1.412   1_554  A
C106        C316   1.512       .  S
C107        C108   1.421   1_554  A
C107        H111   1.074       .  S
C108        C592   1.415       .  A
C109        C591   1.415       .  A
C109        H112   1.079       .  S
C113        C114   1.426       .  A
C113        C601   1.418       .  A
C113        C661   1.511       .  S
C114        C115   1.407       .  A
C114        H119   1.079       .  S
C115        C116   1.392       .  A
C115        C307   1.494       .  S
C116        C600   1.387       .  A
C116        H120   1.083       .  S
C117        C118   1.398       .  A
C117        C599   1.387       .  A
C117        C295   1.478       .  S
C118        C596   1.418       .  A
C118        H121   1.077       .  S
C122        C123   1.413       .  A
C122        C127   1.411       .  A
C122        C379   1.531       .  S
C123        C607   1.425       .  A
C123        H128   1.066       .  S
C124        C125   1.415       .  A
C124        C606   1.425   1_554  A
C125        C126   1.394       .  A
C125        H129   1.079       .  S
C126        C610   1.397       .  A
C126        C367   1.487       .  S
C127        C609   1.397       .  A
C127        H130   1.074       .  S
O131        C139   1.258       .  A
O131       Co151   1.972       .  S
O132        C140   1.271       .  A
O132       Co152   1.974       .  S
O133        C141   1.294       .  A
O133       Co153   2.113       .  S
O134        C142   1.272       .  A
O134       Co154   2.031       .  S
O135        C141   1.260       .  A
O135       Co152   1.891       .  S
O136        C142   1.258       .  A
O136       Co151   1.962       .  S
O137        C140   1.283       .  A
O137       Co154   2.045       .  S
O138        C139   1.264       .  A
O138       Co153   2.006       .  S
C139        C280   1.486       .  S
C140        C196   1.486       .  S
C141        C268   1.480       .  S
C142        C208   1.498       .  S
O143        C156   1.276       .  A
O143       Co151   2.039       .  S
O144        C157   1.294       .  A
O144       Co152   2.086       .  S
O145        C158   1.270       .  A
O145       Co153   1.982       .  S
O146        C159   1.249       .  A
O146       Co154   1.970       .  S
O147        C159   1.256       .  A
O147       Co152   1.992       .  S
O148        C158   1.275       .  A
O148       Co151   2.014       .  S
O149        C156   1.257       .  A
O149       Co154   1.959       .  S
O150        C157   1.269       .  A
O150       Co153   1.899       .  S
Co151       O155   2.023       .  S
Co152       O155   2.009       .  S
Co153       O155   2.035       .  S
Co154       O155   2.043       .  S
C156        C232   1.471       .  S
C157        C247   1.481       .  S
C158        C259   1.496       .  S
C159        C220   1.472       .  S
C160        C161   1.415       .  A
C160        C648   1.422   1_554  A
C160        C531   1.511       .  S
C161        C162   1.398       .  A
C161        H166   1.079       .  S
C162        C163   1.397       .  A
C162        C283   1.484       .  S
C163        C647   1.399   1_554  A
C163        H167   1.084       .  S
C164        C165   1.405       .  A
C164        C646   1.399       .  A
C164        C271   1.487       .  S
C165        C643   1.422       .  A
C165        H168   1.078       .  S
C169        C174   1.414   1_556  A
C169        C653   1.416       .  A
C169        C578   1.507       .  S
C170        C171   1.408       .  A
C170        C652   1.416       .  A
C170        H175   1.078       .  S
C171        C655   1.412       .  A
C171        C199   1.509       .  S
C172        C173   1.401       .  A
C172        C654   1.412   1_554  A
C172        H176   1.081       .  S
C173        C174   1.398       .  A
C173        C211   1.493       .  S
C174        H177   1.078       .  S
C178        C179   1.422       .  A
C178        C666   1.414   1_554  A
C178        C596   1.511       .  S
C179        C180   1.405       .  A
C179        H184   1.077       .  S
C180        C181   1.400   1_554  A
C180        C256   1.489       .  S
C181        C665   1.396       .  A
C181        H185   1.084       .  S
C182        C183   1.400       .  A
C182        C664   1.396       .  A
C182        C244   1.484       .  S
C183        C661   1.414       .  A
C183        H186   1.079       .  S
C187        C188   1.401       .  A
C187        C192   1.388   1_554  A
C187        C235   1.480       .  S
C188        C189   1.421   1_554  A
C188        H193   1.077       .  S
C189        C673   1.420       .  A
C190        C191   1.402       .  A
C190        C672   1.420       .  A
C190        H194   1.079       .  S
C191        C675   1.389       .  A
C191        C223   1.470       .  S
C192        C674   1.389       .  A
C192        H195   1.085       .  S
C196        C197   1.403       .  A
C196        C201   1.415       .  A
C197        C198   1.413       .  A
C197        H202   1.085       .  S
C198        C199   1.425       .  A
C198        C205   1.443       .  S
C199        C200   1.403       .  A
C200        C201   1.392       .  A
C200        H203   1.084       .  S
C201        C204   1.442       .  S
C204        N206   1.157       .  T
C205        N207   1.157       .  T
C208        C209   1.412       .  A
C208        C213   1.417       .  A
C209        C210   1.403       .  A
C209        H214   1.084       .  S
C210        C211   1.409       .  A
C210        C217   1.444       .  S
C211        C212   1.406       .  A
C212        C213   1.405       .  A
C212        H215   1.085       .  S
C213        C216   1.444       .  S
C216        N218   1.157       .  T
C217        N219   1.157       .  T
C220        C221   1.402       .  A
C220        C225   1.408       .  A
C221        C222   1.390       .  A
C221        H226   1.080       .  S
C222        C223   1.407       .  A
C222        C229   1.446       .  S
C223        C224   1.406       .  A
C224        C225   1.405       .  A
C224        H227   1.084       .  S
C225        C228   1.442       .  S
C228        N230   1.157       .  T
C229        N231   1.157       .  T
C232        C233   1.401       .  A
C232        C237   1.408       .  A
C233        C234   1.399       .  A
C233        H238   1.083       .  S
C234        C235   1.412       .  A
C234        C241   1.444       .  S
C235        C236   1.403       .  A
C236        C237   1.399       .  A
C236        H239   1.085       .  S
C237        C240   1.437       .  S
C240        N242   1.155       .  T
C241        N243   1.157       .  T
C244        C245   1.403       .  A
C244        C249   1.411       .  A
C245        C246   1.398       .  A
C245        H250   1.085       .  S
C246        C247   1.416       .  A
C246        C253   1.445       .  S
C247        C248   1.406       .  A
C248        C249   1.400       .  A
C248        H251   1.085       .  S
C249        C252   1.444       .  S
C252        N254   1.157       .  T
C253        N255   1.157       .  T
C256        C257   1.398       .  A
C256        C261   1.411       .  A
C257        C258   1.391       .  A
C257        H262   1.083       .  S
C258        C259   1.420       .  A
C258        C265   1.444       .  S
C259        C260   1.413       .  A
C260        C261   1.412       .  A
C260        H263   1.084       .  S
C261        C264   1.442       .  S
C264        N266   1.157       .  T
C265        N267   1.157       .  T
C268        C269   1.404       .  A
C268        C273   1.411       .  A
C269        C270   1.397       .  A
C269        H274   1.085       .  S
C270        C271   1.409       .  A
C270        C277   1.444       .  S
C271        C272   1.408       .  A
C272        C273   1.410       .  A
C272        H275   1.084       .  S
C273        C276   1.443       .  S
C276        N278   1.157       .  T
C277        N762   1.157       .  T
N279        C760   1.157       .  T
C280        C281   1.409       .  A
C280        C285   1.414       .  A
C281        C282   1.400       .  A
C281        H286   1.084       .  S
C282        C283   1.409       .  A
C282        C289   1.444       .  S
C283        C284   1.404       .  A
C284        C285   1.402       .  A
C284        H287   1.084       .  S
C285        C288   1.444       .  S
C288        N290   1.157       .  T
C289        N774   1.157       .  T
N291        C772   1.157       .  T
C292        C293   1.403       .  A
C292        C297   1.412       .  A
C293        C294   1.399       .  A
C293        H298   1.084       .  S
C294        C295   1.412       .  A
C294        C301   1.444       .  S
C295        C296   1.402       .  A
C296        C297   1.395       .  A
C296        H299   1.085       .  S
C297        C300   1.440       .  S
C300        N302   1.156       .  T
C301        N303   1.157       .  T
C304        C305   1.414       .  A
C304        C309   1.405       .  A
C305        C306   1.405       .  A
C305        H310   1.085       .  S
C306        C307   1.411       .  A
C306        C313   1.444       .  S
C307        C308   1.408       .  A
C308        C309   1.391       .  A
C308        H311   1.085       .  S
C309        C312   1.435       .  S
C312        N314   1.154   1_655  T
C313        N315   1.157       .  T
C316        C317   1.403       .  A
C316        C321   1.424       .  A
C317        C318   1.391       .  A
C317        H322   1.084       .  S
C318        C319   1.416       .  A
C318        C325   1.441       .  S
C319        C320   1.406       .  A
C320        C321   1.417       .  A
C320        H323   1.085       .  S
C321        C324   1.442       .  S
C324        N326   1.157       .  T
C325        N327   1.158   1_655  T
C328        C329   1.406       .  A
C328        C333   1.410       .  A
C329        C330   1.393       .  A
C329        H334   1.083       .  S
C330        C331   1.408       .  A
C330        C337   1.446       .  S
C331        C332   1.409       .  A
C332        C333   1.413       .  A
C332        H335   1.084       .  S
C333        C336   1.442       .  S
C336        N338   1.157       .  T
C337        N339   1.157       .  T
C340        C341   1.405       .  A
C340        C345   1.408       .  A
C341        C342   1.404       .  A
C341        H346   1.085       .  S
C342        C343   1.412       .  A
C342        C349   1.443       .  S
C343        C344   1.403       .  A
C344        C345   1.391       .  A
C344        H347   1.086       .  S
C345        C348   1.440       .  S
C348        N350   1.155       .  T
C349        N351   1.157       .  T
C352        C353   1.398       .  A
C352        C357   1.408       .  A
C353        C354   1.393       .  A
C353        H358   1.085       .  S
C354        C355   1.412       .  A
C354        C361   1.445       .  S
C355        C356   1.401       .  A
C356        C357   1.402       .  A
C356        H359   1.084       .  S
C357        C360   1.439       .  S
C360        N362   1.156       .  T
C361        N363   1.157       .  T
C364        C365   1.413       .  A
C364        C369   1.419       .  A
C365        C366   1.408       .  A
C365        H370   1.084       .  S
C366        C367   1.408       .  A
C366        C373   1.442       .  S
C367        C368   1.399       .  A
C368        C369   1.397       .  A
C368        H371   1.086       .  S
C369        C372   1.439       .  S
C372        N374   1.155       .  T
C373        N375   1.157       .  T
C376        C377   1.402       .  A
C376        C381   1.401       .  A
C377        C378   1.415       .  A
C377        H382   1.085       .  S
C378        C379   1.435       .  A
C378        C385   1.441       .  S
C379        C380   1.415       .  A
C380        C381   1.389       .  A
C380        H383   1.078       .  S
C381        C384   1.441       .  S
C384        N386   1.157       .  T
C385        N387   1.157       .  T
C388        C389   1.422       .  A
C388        C393   1.425       .  A
C389        C390   1.411       .  A
C389        H394   1.082       .  S
C390        C391   1.402       .  A
C390        C397   1.443       .  S
C391        C392   1.396       .  A
C392        C393   1.392       .  A
C392        H395   1.082       .  S
C393        C396   1.442       .  S
C396        N881   1.157       .  T
C397        N399   1.157       .  T
N398        C879   1.157       .  T
C400        C401   1.403       .  A
C400        C405   1.413       .  A
C401        C402   1.409       .  A
C401        H406   1.084       .  S
C402        C403   1.420       .  A
C402        C409   1.443       .  S
C403        C404   1.405       .  A
C404        C405   1.397       .  A
C404        H407   1.084       .  S
C405        C408   1.446       .  S
C408        N893   1.157       .  T
C409        N411   1.157       .  T
N410        C891   1.157       .  T
C412        C413   1.402       .  A
C412        C417   1.406       .  A
C413        C414   1.398       .  A
C413        H418   1.085       .  S
C414        C415   1.410       .  A
C414        C421   1.442       .  S
C415        C416   1.407       .  A
C416        C417   1.402       .  A
C416        H419   1.085       .  S
C417        C420   1.443       .  S
C420        N422   1.157       .  T
C421        N423   1.157       .  T
C424        C425   1.405       .  A
C424        C429   1.406       .  A
C425        C426   1.387       .  A
C425        H430   1.086       .  S
C426        C427   1.409       .  A
C426        C433   1.442       .  S
C427        C428   1.410       .  A
C428        C429   1.403       .  A
C428        H431   1.084       .  S
C429        C432   1.442       .  S
C432        N434   1.157       .  T
C433        N435   1.156       .  T
C436        C437   1.398       .  A
C436        C441   1.413       .  A
C437        C438   1.390       .  A
C437        H442   1.086       .  S
C438        C439   1.425   1_565  A
C438        C445   1.447       .  S
C439        C440   1.410       .  A
C440        C441   1.412   1_545  A
C440        H443   1.084       .  S
C441        C444   1.442       .  S
C444        N446   1.157       .  T
C445        N447   1.158       .  T
C448        C449   1.402   1_565  A
C448        C453   1.414       .  A
C449        C450   1.403       .  A
C449        H454   1.084       .  S
C450        C451   1.412   1_545  A
C450        C457   1.441       .  S
C451        C452   1.403       .  A
C452        C453   1.400       .  A
C452        H455   1.085       .  S
C453        C456   1.445       .  S
C456        N458   1.157       .  T
C457        N459   1.156       .  T
C460        C461   1.401       .  A
C460        C465   1.407       .  A
C461        C462   1.400       .  A
C461        H466   1.085       .  S
C462        C463   1.417       .  A
C462        C469   1.444       .  S
C463        C464   1.410       .  A
C464        C465   1.403       .  A
C464        H467   1.084       .  S
C465        C468   1.443       .  S
C468        N470   1.157       .  T
C469        N471   1.157   1_565  T
C472        C473   1.407   1_565  A
C472        C477   1.413       .  A
C473        C474   1.395   1_545  A
C473        H478   1.085       .  S
C474        C475   1.411       .  A
C474        C481   1.446   1_565  S
C475        C476   1.408       .  A
C476        C477   1.409       .  A
C476        H479   1.084       .  S
C477        C480   1.443       .  S
C480        N482   1.157       .  T
C481        N966   1.157       .  T
N483        C964   1.157   1_554  T
C484        C489   1.418       .  A
C484        C672   1.512       .  S
C485        C486   1.405       .  A
C485        H490   1.079       .  S
C486        C487   1.401   1_556  A
C486        C958   1.488       .  S
C487        H491   1.084       .  S
C488        C489   1.398       .  A
C488        C943   1.480       .  S
C489        H492   1.077       .  S
C493        C494   1.394       .  A
C493        C498   1.400       .  A
C493        C931   1.484       .  S
C494        H499   1.084   1_565  S
C495        C496   1.405       .  A
C495        C919   1.490       .  S
C496        C497   1.422       .  A
C496        H500   1.078       .  S
C497        C607   1.516       .  S
C498        H501   1.074       .  S
O502        C510   1.258       .  A
O502       Co522   1.875       .  S
O503        C511   1.249       .  A
O503       Co523   1.953       .  S
O504        C512   1.265       .  A
O504       Co524   2.008   1_565  S
O505        C513   1.281       .  A
O505       Co525   2.031       .  S
O506        C512   1.259   1_545  A
O506       Co523   1.973       .  S
O507        C513   1.267       .  A
O507       Co522   1.973       .  S
O508        C511   1.270       .  A
O508       Co525   2.041       .  S
O509        C510   1.300       .  A
O509       Co524   2.133       .  S
C510        C955   1.486   1_545  S
C511        C874   1.476       .  S
C512        C946   1.489       .  S
C513        C886   1.495       .  S
O514        C527   1.257       .  A
O514       Co522   1.993       .  S
O515        C528   1.270       .  A
O515       Co523   1.989       .  S
O516        C529   1.270   1_565  A
O516       Co524   1.894   1_565  S
O517        C530   1.253       .  A
O517       Co525   1.936       .  S
O518        C530   1.280       .  A
O518       Co523   2.059       .  S
O519        C529   1.298       .  A
O519       Co522   2.103       .  S
O520        C527   1.248       .  A
O520       Co525   1.967       .  S
O521        C528   1.276       .  A
O521       Co524   2.002       .  S
Co522       O526   1.981       .  S
Co523       O526   2.003       .  S
Co524       O526   2.028       .  S
Co525       O526   2.050       .  S
C527        C910   1.477       .  S
C528        C922   1.497       .  S
C529        C934   1.482   1_545  S
C530        C898   1.472       .  S
C531        C532   1.420   1_554  A
C532        C533   1.403       .  A
C532        H537   1.077       .  S
C533        C534   1.391   1_556  A
C533        C907   1.479       .  S
C534        H538   1.086   1_554  S
C535        C536   1.400       .  A
C535        C895   1.473       .  S
C536        H539   1.080       .  S
C540        C541   1.394       .  A
C540        C545   1.395       .  A
C540        C883   1.487       .  S
C541        H546   1.078       .  S
C542        C543   1.418       .  A
C542        C591   1.513       .  S
C543        C544   1.416       .  A
C543        H547   1.076       .  S
C544        C871   1.518       .  S
C545        H548   1.076       .  S
O549        C557   1.249       .  A
O549       Co569   1.971       .  S
O550        C558   1.267       .  A
O550       Co570   2.033   1_655  S
O551        C559   1.260       .  A
O551       Co571   2.015       .  S
O552        C560   1.260       .  A
O552       Co572   1.953       .  S
O553        C559   1.249       .  A
O553       Co570   1.962       .  S
O554        C560   1.279       .  A
O554       Co569   2.032   1_655  S
O555        C558   1.246       .  A
O555       Co572   1.950       .  S
O556        C557   1.251       .  A
O556       Co571   2.001       .  S
C557        C859   1.487       .  S
C558        C775   1.472       .  S
C559        C847   1.498       .  S
C560        C787   1.487       .  S
O561        C574   1.257   1_455  A
O561       Co569   1.994       .  S
O562        C575   1.270       .  A
O562       Co570   1.902       .  S
O563        C576   1.293       .  A
O563       Co571   2.063       .  S
O564        C577   1.273       .  A
O564       Co572   2.047       .  S
O565        C577   1.254   1_455  A
O565       Co570   1.986       .  S
O566        C576   1.274       .  A
O566       Co569   1.889       .  S
O567        C574   1.258       .  A
O567       Co572   1.992       .  S
O568        C575   1.290       .  A
O568       Co571   2.055       .  S
Co569       O573   1.938       .  S
Co570       O573   1.932       .  S
Co571       O573   2.262       .  S
Co572       O573   2.098   1_655  S
C574        C811   1.485       .  S
C575        C823   1.473       .  S
C576        C835   1.464       .  S
C577        C802   1.492       .  S
C578        C583   1.421       .  A
C579        C580   1.401       .  A
C579        H584   1.079       .  S
C580        C826   1.480       .  S
C581        C582   1.386       .  A
C581        H585   1.086       .  S
C582        C583   1.399       .  A
C582        C838   1.471       .  S
C583        H586   1.080       .  S
C587        C588   1.397       .  A
C587        C592   1.395       .  A
C587        C814   1.485       .  S
C588        H593   1.083       .  S
C589        C590   1.412       .  A
C589        C799   1.512       .  S
C590        C591   1.421       .  A
C590        H594   1.074       .  S
C592        H595   1.079       .  S
C596        C597   1.426   1_554  A
C597        C598   1.407       .  A
C597        H602   1.079       .  S
C598        C599   1.392   1_556  A
C598        C790   1.494       .  S
C599        H603   1.083       .  S
C600        C601   1.398       .  A
C600        C778   1.478       .  S
C601        H604   1.077       .  S
C605        C606   1.413       .  A
C605        C610   1.411   1_556  A
C605        C862   1.531       .  S
C606        H611   1.066       .  S
C607        C608   1.415       .  A
C608        C609   1.394       .  A
C608        H612   1.079       .  S
C609        C850   1.487       .  S
C610        H613   1.074       .  S
O614        C622   1.258       .  A
O614       Co634   1.972       .  S
O615        C623   1.271       .  A
O615       Co635   1.974       .  S
O616        C624   1.294       .  A
O616       Co636   2.113       .  S
O617        C625   1.272       .  A
O617       Co637   2.031       .  S
O618        C624   1.260       .  A
O618       Co635   1.891       .  S
O619        C625   1.258       .  A
O619       Co634   1.962       .  S
O620        C623   1.283       .  A
O620       Co637   2.045       .  S
O621        C622   1.264       .  A
O621       Co636   2.006       .  S
C622        C763   1.486       .  S
C623        C679   1.486       .  S
C624        C751   1.480       .  S
C625        C691   1.498       .  S
O626        C639   1.276       .  A
O626       Co634   2.039       .  S
O627        C640   1.294       .  A
O627       Co635   2.086       .  S
O628        C641   1.270       .  A
O628       Co636   1.982       .  S
O629        C642   1.249       .  A
O629       Co637   1.970       .  S
O630        C642   1.256       .  A
O630       Co635   1.992       .  S
O631        C641   1.275       .  A
O631       Co634   2.014       .  S
O632        C639   1.257       .  A
O632       Co637   1.959       .  S
O633        C640   1.269       .  A
O633       Co636   1.899       .  S
Co634       O638   2.023       .  S
Co635       O638   2.009       .  S
Co636       O638   2.035       .  S
Co637       O638   2.043       .  S
C639        C715   1.471       .  S
C640        C730   1.481       .  S
C641        C742   1.496       .  S
C642        C703   1.472       .  S
C643        C644   1.415       .  A
C644        C645   1.398       .  A
C644        H649   1.079       .  S
C645        C646   1.397       .  A
C645        C766   1.484       .  S
C646        H650   1.084       .  S
C647        C648   1.405       .  A
C647        C754   1.487       .  S
C648        H651   1.078       .  S
C652        C657   1.414       .  A
C653        C654   1.408       .  A
C653        H658   1.078       .  S
C654        C682   1.509       .  S
C655        C656   1.401       .  A
C655        H659   1.081       .  S
C656        C657   1.398       .  A
C656        C694   1.493       .  S
C657        H660   1.078       .  S
C661        C662   1.422       .  A
C662        C663   1.405       .  A
C662        H667   1.077       .  S
C663        C664   1.400       .  A
C663        C739   1.489       .  S
C664        H668   1.084       .  S
C665        C666   1.400       .  A
C665        C727   1.484       .  S
C666        H669   1.079       .  S
C670        C671   1.401       .  A
C670        C675   1.388       .  A
C670        C718   1.480       .  S
C671        C672   1.421       .  A
C671        H676   1.077       .  S
C673        C674   1.402       .  A
C673        H677   1.079       .  S
C674        C706   1.470       .  S
C675        H678   1.085       .  S
C679        C680   1.403       .  A
C679        C684   1.415       .  A
C680        C681   1.413       .  A
C680        H685   1.085       .  S
C681        C682   1.425       .  A
C681        C688   1.443       .  S
C682        C683   1.403       .  A
C683        C684   1.392       .  A
C683        H686   1.084       .  S
C684        C687   1.442       .  S
C687        N689   1.157       .  T
C688        N690   1.157       .  T
C691        C692   1.412       .  A
C691        C696   1.417       .  A
C692        C693   1.403       .  A
C692        H697   1.084       .  S
C693        C694   1.409       .  A
C693        C700   1.444       .  S
C694        C695   1.406       .  A
C695        C696   1.405       .  A
C695        H698   1.085       .  S
C696        C699   1.444       .  S
C699        N701   1.157       .  T
C700        N702   1.157       .  T
C703        C704   1.402       .  A
C703        C708   1.408       .  A
C704        C705   1.390       .  A
C704        H709   1.080       .  S
C705        C706   1.407       .  A
C705        C712   1.446       .  S
C706        C707   1.406       .  A
C707        C708   1.405       .  A
C707        H710   1.084       .  S
C708        C711   1.442       .  S
C711        N713   1.157       .  T
C712        N714   1.157       .  T
C715        C716   1.401       .  A
C715        C720   1.408       .  A
C716        C717   1.399       .  A
C716        H721   1.083       .  S
C717        C718   1.412       .  A
C717        C724   1.444       .  S
C718        C719   1.403       .  A
C719        C720   1.399       .  A
C719        H722   1.085       .  S
C720        C723   1.437       .  S
C723        N725   1.155       .  T
C724        N726   1.157       .  T
C727        C728   1.403       .  A
C727        C732   1.411       .  A
C728        C729   1.398       .  A
C728        H733   1.085       .  S
C729        C730   1.416       .  A
C729        C736   1.445       .  S
C730        C731   1.406       .  A
C731        C732   1.400       .  A
C731        H734   1.085       .  S
C732        C735   1.444       .  S
C735        N737   1.157       .  T
C736        N738   1.157       .  T
C739        C740   1.398       .  A
C739        C744   1.411       .  A
C740        C741   1.391       .  A
C740        H745   1.083       .  S
C741        C742   1.420       .  A
C741        C748   1.444       .  S
C742        C743   1.413       .  A
C743        C744   1.412       .  A
C743        H746   1.084       .  S
C744        C747   1.442       .  S
C747        N749   1.157       .  T
C748        N750   1.157       .  T
C751        C752   1.404       .  A
C751        C756   1.411       .  A
C752        C753   1.397       .  A
C752        H757   1.085       .  S
C753        C754   1.409       .  A
C753        C760   1.444       .  S
C754        C755   1.408       .  A
C755        C756   1.410       .  A
C755        H758   1.084       .  S
C756        C759   1.443       .  S
C759        N761   1.157       .  T
C763        C764   1.409       .  A
C763        C768   1.414       .  A
C764        C765   1.400       .  A
C764        H769   1.084       .  S
C765        C766   1.409       .  A
C765        C772   1.444       .  S
C766        C767   1.404       .  A
C767        C768   1.402       .  A
C767        H770   1.084       .  S
C768        C771   1.444       .  S
C771        N773   1.157       .  T
C775        C776   1.403       .  A
C775        C780   1.412       .  A
C776        C777   1.399       .  A
C776        H781   1.084       .  S
C777        C778   1.412       .  A
C777        C784   1.444       .  S
C778        C779   1.402       .  A
C779        C780   1.395       .  A
C779        H782   1.085       .  S
C780        C783   1.440       .  S
C783        N785   1.156       .  T
C784        N786   1.157       .  T
C787        C788   1.414       .  A
C787        C792   1.405       .  A
C788        C789   1.405       .  A
C788        H793   1.085       .  S
C789        C790   1.411       .  A
C789        C796   1.444       .  S
C790        C791   1.408       .  A
C791        C792   1.391       .  A
C791        H794   1.085       .  S
C792        C795   1.435       .  S
C795        N797   1.154   1_655  T
C796        N798   1.157       .  T
C799        C800   1.403       .  A
C799        C804   1.424       .  A
C800        C801   1.391       .  A
C800        H805   1.084       .  S
C801        C802   1.416       .  A
C801        C808   1.441       .  S
C802        C803   1.406       .  A
C803        C804   1.417       .  A
C803        H806   1.085       .  S
C804        C807   1.442       .  S
C807        N809   1.157       .  T
C808        N810   1.158   1_655  T
C811        C812   1.406       .  A
C811        C816   1.410       .  A
C812        C813   1.393       .  A
C812        H817   1.083       .  S
C813        C814   1.408       .  A
C813        C820   1.446       .  S
C814        C815   1.409       .  A
C815        C816   1.413       .  A
C815        H818   1.084       .  S
C816        C819   1.442       .  S
C819        N821   1.157       .  T
C820        N822   1.157       .  T
C823        C824   1.405       .  A
C823        C828   1.408       .  A
C824        C825   1.404       .  A
C824        H829   1.085       .  S
C825        C826   1.412       .  A
C825        C832   1.443       .  S
C826        C827   1.403       .  A
C827        C828   1.391       .  A
C827        H830   1.086       .  S
C828        C831   1.440       .  S
C831        N833   1.155       .  T
C832        N834   1.157       .  T
C835        C836   1.398       .  A
C835        C840   1.408       .  A
C836        C837   1.393       .  A
C836        H841   1.085       .  S
C837        C838   1.412       .  A
C837        C844   1.445       .  S
C838        C839   1.401       .  A
C839        C840   1.402       .  A
C839        H842   1.084       .  S
C840        C843   1.439       .  S
C843        N845   1.156       .  T
C844        N846   1.157       .  T
C847        C848   1.413       .  A
C847        C852   1.419       .  A
C848        C849   1.408       .  A
C848        H853   1.084       .  S
C849        C850   1.408       .  A
C849        C856   1.442       .  S
C850        C851   1.399       .  A
C851        C852   1.397       .  A
C851        H854   1.086       .  S
C852        C855   1.439       .  S
C855        N857   1.155       .  T
C856        N858   1.157       .  T
C859        C860   1.402       .  A
C859        C864   1.401       .  A
C860        C861   1.415       .  A
C860        H865   1.085       .  S
C861        C862   1.435       .  A
C861        C868   1.441       .  S
C862        C863   1.415       .  A
C863        C864   1.389       .  A
C863        H866   1.078       .  S
C864        C867   1.441       .  S
C867        N869   1.157       .  T
C868        N870   1.157       .  T
C871        C872   1.422       .  A
C871        C876   1.425       .  A
C872        C873   1.411       .  A
C872        H877   1.082       .  S
C873        C874   1.402       .  A
C873        C880   1.443       .  S
C874        C875   1.396       .  A
C875        C876   1.392       .  A
C875        H878   1.082       .  S
C876        C879   1.442       .  S
C880        N882   1.157       .  T
C883        C884   1.403       .  A
C883        C888   1.413       .  A
C884        C885   1.409       .  A
C884        H889   1.084       .  S
C885        C886   1.420       .  A
C885        C892   1.443       .  S
C886        C887   1.405       .  A
C887        C888   1.397       .  A
C887        H890   1.084       .  S
C888        C891   1.446       .  S
C892        N894   1.157       .  T
C895        C896   1.402       .  A
C895        C900   1.406       .  A
C896        C897   1.398       .  A
C896        H901   1.085       .  S
C897        C898   1.410       .  A
C897        C904   1.442       .  S
C898        C899   1.407       .  A
C899        C900   1.402       .  A
C899        H902   1.085       .  S
C900        C903   1.443       .  S
C903        N905   1.157       .  T
C904        N906   1.157       .  T
C907        C908   1.405       .  A
C907        C912   1.406       .  A
C908        C909   1.387       .  A
C908        H913   1.086       .  S
C909        C910   1.409       .  A
C909        C916   1.442       .  S
C910        C911   1.410       .  A
C911        C912   1.403       .  A
C911        H914   1.084       .  S
C912        C915   1.442       .  S
C915        N917   1.157       .  T
C916        N918   1.156       .  T
C919        C920   1.398       .  A
C919        C924   1.413       .  A
C920        C921   1.390       .  A
C920        H925   1.086       .  S
C921        C922   1.425   1_565  A
C921        C928   1.447       .  S
C922        C923   1.410       .  A
C923        C924   1.412   1_545  A
C923        H926   1.084       .  S
C924        C927   1.442       .  S
C927        N929   1.157       .  T
C928        N930   1.158       .  T
C931        C932   1.402   1_565  A
C931        C936   1.414       .  A
C932        C933   1.403       .  A
C932        H937   1.084       .  S
C933        C934   1.412   1_545  A
C933        C940   1.441       .  S
C934        C935   1.403       .  A
C935        C936   1.400       .  A
C935        H938   1.085       .  S
C936        C939   1.445       .  S
C939        N941   1.157       .  T
C940        N942   1.156       .  T
C943        C944   1.401       .  A
C943        C948   1.407       .  A
C944        C945   1.400       .  A
C944        H949   1.085       .  S
C945        C946   1.417       .  A
C945        C952   1.444       .  S
C946        C947   1.410       .  A
C947        C948   1.403       .  A
C947        H950   1.084       .  S
C948        C951   1.443       .  S
C951        N953   1.157       .  T
C952        N954   1.157   1_565  T
C955        C956   1.407   1_565  A
C955        C960   1.413       .  A
C956        C957   1.395   1_545  A
C956        H961   1.085       .  S
C957        C958   1.411       .  A
C957        C964   1.446   1_565  S
C958        C959   1.408       .  A
C959        C960   1.409       .  A
C959        H962   1.084       .  S
C960        C963   1.443       .  S
C963        N965   1.157       .  T
