geometry optimzed in LAMMPS
_audit_creation_date              2020-12-01 
_audit_creation_method            'lammps2cif' 
_symmetry_space_group_name_H-M    'P1' 
_symmetry_Int_Tables_number       1 
_symmetry_cell_setting            triclinic 
loop_ 
_symmetry_equiv_pos_as_xyz 
  x,y,z 
_cell_length_a                    48.77442961 
_cell_length_b                    48.69194838660796 
_cell_length_c                    25.090514220781134 
_cell_angle_alpha                 90.01802411783412 
_cell_angle_beta                  89.70550614497338 
_cell_angle_gamma                 126.78789268408946 
loop_ 
_atom_site_label 
_atom_site_type_symbol 
_atom_site_fract_x 
_atom_site_fract_y 
_atom_site_fract_z 
_atom_site_charge 
C1          C  0.33388820  0.17414253  0.85256548    -0.02100
C2          C  0.32784324  0.16777378  0.78685039    -0.02100
C3          C  0.14583636  0.35436473  0.28985479    -0.02100
C4          C  0.14746001  0.35623736  0.35703111    -0.02100
Zr5        Zr  0.45879023  0.03928640  0.11018100     2.17500
O6          O  0.44207100  0.04970769  0.19514147    -0.51000
O7          O  0.43654345  0.06186913  0.05283495    -0.74200
O8          O  0.49759323  0.10034542  0.13335033    -0.81000
O9          O  0.38350790  0.44896379  0.10661556    -0.82700
O10         O  0.05474665  0.12062703  0.10702508    -0.78400
O11         O  0.39791671  0.99827185  0.13542923    -0.90000
O12         O  0.45714305  0.06663516  0.96917194    -0.75900
O13         O  0.50333206  0.06877233  0.04501233    -0.85400
O14         O  0.43717532  0.00524073  0.03130648    -0.85100
O15         O  0.01100550  0.04731169  0.14622803    -0.71900
O16         O  0.44906778  0.48876782  0.13156674    -0.84000
Zr17       Zr  0.02093233  0.48686061  0.02741815     2.26400
Zr18       Zr  0.05224031  0.07264760  0.07462043     2.06300
Zr19       Zr  0.42804022  0.45391759  0.05333309     2.10000
Zr20       Zr  0.48190829  0.03532650  0.96687531     1.78800
O21         O  0.39304344  0.39799081  0.09672760    -0.92800
O22         O  0.01922951  0.08277605  0.91680396    -0.40600
O23         O  0.47200971  0.48209699  0.98694213    -0.77300
O24         O  0.02818891  0.03657010  0.99840330    -0.96000
O25         O  0.04173955  0.02058515  0.10418584    -0.89300
O26         O  0.47570532  0.45890119  0.09108148    -0.92100
C27         C  0.44068170  0.07117223  0.00380371     1.01700
C28         C  0.37825583  0.46874377  0.13069005     1.14600
C29         C  0.03447956  0.12497979  0.13136789     1.05400
O30         O  0.09016330  0.12277116  0.01845791    -0.94300
O31         O  0.09854057  0.07383774  0.03313446    -0.90000
O32         O  0.07806325  0.02008472  0.00676810    -0.83100
C33         C  0.10225466  0.05223118  0.01154750     1.12000
O34         O  0.47708150  0.99777866  0.25542556    -0.96200
Zr35       Zr  0.49511272  0.99089123  0.16891271     1.88900
O36         O  0.03924619  0.46071627  0.08758048    -0.72900
O37         O  0.09372735  0.09600436  0.14655103    -0.54100
O38         O  0.05058074  0.02276044  0.22511692    -0.96800
O39         O  0.45416836  0.44503888  0.21952929    -0.54000
O40         O  0.01969032  0.45972158  0.17050980    -0.73400
C41         C  0.03439213  0.45229897  0.13736031     0.99000
O42         O  0.03847020  0.47764570  0.94205740    -0.62200
O43         O  0.38357132  0.43578565  0.98753108    -0.57000
O44         O  0.48360281  0.43018304  0.99219222    -0.93700
O45         O  0.42870284  0.41228723  0.00068108    -0.92100
O46         O  0.43448585  0.50244629  0.90196346    -0.92500
O47         O  0.49755255  0.03046104  0.87695105    -0.91300
C48         C  0.45135683  0.40843483  0.98519243     1.17800
H49         H  0.41778735  0.50275917  0.01570232     0.33700
H50         H  0.04463286  0.04612485  0.96947395     0.44600
H51         H  0.46935735  0.43636465  0.09902449     0.38100
H52         H  0.02028560  0.06257548  0.17633038     0.34600
H53         H  0.51398172  0.09400155  0.89861698     0.26400
H54         H  0.10579635  0.08552492  0.14175470     0.32300
H55         H  0.05767671  0.04642021  0.22918809     0.38200
H56         H  0.43084515  0.01841215  0.89039058     0.32700
H57         H  0.38560738  0.42186556  0.96137167     0.31600
H58         H  0.36997134  0.38640555  0.08119663     0.33200
H59         H  0.46683229  0.43885328  0.24069125     0.32200
H60         H  0.99287667  0.00162780  0.88610800     0.36200
H61         H  0.54365953  0.46184048  0.94976328     0.28900
H62         H  0.43964531  0.06814960  0.18793471     0.33200
H63         H  0.47332795  0.01539741  0.24951808     0.36000
H64         H  0.36177020  0.41903344  0.00656107     0.28600
H65         H  0.01814767  0.96859919  0.91906276     0.41500
H66         H  0.08159215  0.11484108  0.98180764     0.31600
H67         H  0.02653389  0.10204622  0.94110005     0.39200
H68         H  0.44119440  0.42632807  0.19320741     0.31000
H69         H  0.11097325  0.12041845  0.13684527     0.31100
H70         H  0.46256352  0.06047742  0.21798342     0.31400
Zr71       Zr  0.01921220  0.48429733  0.61015342     2.17500
O72         O  0.04159866  0.46809466  0.68021743    -0.51000
O73         O  0.04539711  0.46939669  0.54442425    -0.74200
O74         O  0.48362549  0.42468377  0.63396264    -0.81000
O75         O  0.08690308  0.07882692  0.64440007    -0.82700
O76         O  0.43113648  0.40180099  0.59945937    -0.78400
O77         O  0.07439598  0.02572156  0.64913755    -0.90000
O78         O  0.04516208  0.48916472  0.46261094    -0.75900
O79         O  0.48685169  0.46492044  0.53262665    -0.85400
O80         O  0.04373847  0.03011425  0.54702566    -0.85100
O81         O  0.46542349  0.46821477  0.64110709    -0.71900
O82         O  0.01967373  0.03008271  0.65235000    -0.84000
Zr83       Zr  0.45675891  0.03964878  0.54221596     2.26400
Zr84       Zr  0.43186357  0.44792489  0.56129481     2.06300
Zr85       Zr  0.04480129  0.07521948  0.58771362     2.10000
Zr86       Zr  0.51207130  0.01254533  0.47400562     1.78800
O87         O  0.06512265  0.12234296  0.64940829    -0.92800
O88         O  0.48404956  0.46474728  0.40858637    -0.40600
O89         O  0.00934588  0.05422884  0.51037554    -0.77300
O90         O  0.45668188  0.49386412  0.49815449    -0.96000
O91         O  0.42954135  0.99250293  0.60308440    -0.89300
O92         O  0.49069150  0.06039929  0.62091952    -0.92100
C93         C  0.05295155  0.47429754  0.49449137     1.01700
C94         C  0.09344765  0.05808596  0.65910379     1.14600
C95         C  0.45224465  0.39928945  0.62504883     1.05400
O96         O  0.41827035  0.41000453  0.48639721    -0.94300
O97         O  0.38558623  0.44423442  0.51790433    -0.90000
O98         O  0.39773074  0.99973253  0.51133152    -0.83100
C99         C  0.37815456  0.46465020  0.50575647     1.12000
O100        O  0.47504825  0.99400654  0.76235094    -0.96200
Zr101      Zr  0.46366740  0.01305554  0.68128355     1.88900
O102        O  0.43021960  0.05451699  0.60641512    -0.72900
O103        O  0.37682823  0.40616270  0.60443565    -0.52100
O104        O  0.41180087  0.46567007  0.72170748    -0.96800
O105        O  0.99552354  0.06032567  0.74534114    -0.54000
O106        O  0.42808871  0.03234251  0.68740142    -0.73400
C107        C  0.42143850  0.04827595  0.65579380     0.99000
O108        O  0.43922355  0.05380903  0.46229384    -0.62200
O109        O  0.09832721  0.10815637  0.53736539    -0.57000
O110        O  0.49378009  0.10152912  0.52269716    -0.93700
O111        O  0.04642347  0.12004721  0.54190729    -0.92100
O112        O  0.05871561  0.05243146  0.42194583    -0.92500
O113        O  0.50487239  0.03593278  0.39402921    -0.91300
C114        C  0.02464661  0.12345414  0.52102750     1.17800
H115        H  0.06663653  0.03789358  0.53790625     0.33700
H116        H  0.44274073  0.48638844  0.46645247     0.44600
H117        H  0.99337638  0.07976609  0.63287069     0.38100
H118        H  0.45587608  0.45038332  0.66781893     0.34600
H119        H  0.50176065  0.47112779  0.38139310     0.26400
H120        H  0.36848079  0.38375402  0.58874253     0.32300
H121        H  0.39392159  0.95743036  0.70224849     0.38200
H122        H  0.07367429  0.04500250  0.42125281     0.32700
H123        H  0.09176652  0.11004458  0.50102625     0.31600
H124        H  0.09025342  0.13787308  0.64408849     0.33200
H125        H  0.47527771  0.05023804  0.77702239     0.32200
H126        H  0.48579834  0.03714593  0.40268511     0.36200
H127        H  0.43571459  0.07099357  0.47360561     0.28900
H128        H  0.04142358  0.44913156  0.66542125     0.33200
H129        H  0.49728034  0.99816794  0.75561976     0.36000
H130        H  0.11113554  0.13166734  0.55195577     0.28600
H131        H  0.45968516  0.06650129  0.43882030     0.41500
H132        H  0.39306494  0.39282656  0.48781750     0.31600
H133        H  0.48068232  0.44520682  0.42793054     0.39200
H134        H  0.01987871  0.06977762  0.74064165     0.31000
H135        H  0.38241513  0.40487932  0.64181237     0.31100
H136        H  0.52893979  0.45758991  0.70467662     0.31400
C137        C  0.24034551  0.41946005  0.42229399     0.16300
C138        C  0.26970357  0.44481041  0.45074533    -0.32700
C139        C  0.29614798  0.44118854  0.45501439     0.20700
C140        C  0.29323208  0.41363898  0.43200342     0.02900
C141        C  0.26457938  0.38928847  0.40232052    -0.22500
C142        C  0.23837954  0.39292471  0.39826423     0.12100
S143        S  0.20412768  0.41683845  0.41501885    -0.06100
C144        C  0.18528966  0.37878792  0.37882486    -0.09600
C145        C  0.20823819  0.37077483  0.37276216    -0.26200
S146        S  0.32630047  0.41182363  0.44423966    -0.03400
C147        C  0.34503005  0.44909077  0.47996990    -0.16900
C148        C  0.32637527  0.46215605  0.48214374    -0.14900
H149        H  0.27151294  0.46583416  0.46963700     0.20500
H150        H  0.26237996  0.36783653  0.38427325     0.16600
H151        H  0.20404815  0.34975196  0.35050838     0.19100
H152        H  0.33409864  0.48510553  0.50340322     0.12400
C153        C  0.10162491  0.44638193  0.41934878     0.16300
C154        C  0.11925530  0.44045685  0.38227998    -0.32700
C155        C  0.12310652  0.41476670  0.39442838     0.20700
C156        C  0.11050574  0.39639300  0.44138987     0.02900
C157        C  0.09413692  0.40313734  0.47936380    -0.22500
C158        C  0.08975926  0.42832539  0.46702264     0.12100
S159        S  0.09147305  0.47415298  0.41053187    -0.06100
C160        C  0.07141541  0.46151693  0.47207352    -0.09600
C161        C  0.07284136  0.43717770  0.49764195    -0.26200
S162        S  0.11638636  0.36558952  0.44735582    -0.03400
C163        C  0.13212215  0.37378696  0.38217423    -0.16900
C164        C  0.13793107  0.40390045  0.36273732    -0.14900
H165        H  0.12842987  0.45433030  0.34485075     0.20500
H166        H  0.08430457  0.38864625  0.51620857     0.16600
H167        H  0.06115688  0.42573963  0.53594680     0.19100
H168        H  0.15188936  0.41717707  0.32665959     0.12400
C169        C  0.05252651  0.21093741  0.46477709     0.16300
C170        C  0.05615550  0.24078920  0.44891889    -0.32700
C171        C  0.08721993  0.26733537  0.42425321     0.20700
C172        C  0.11276943  0.26374521  0.41500821     0.02900
C173        C  0.10950175  0.23439583  0.43126875    -0.22500
C174        C  0.07898938  0.20830391  0.45664684     0.12100
S175        S  0.01699619  0.17531749  0.49459267    -0.06100
C176        C  0.03860792  0.15732996  0.49706057    -0.09600
C177        C  0.07133718  0.17799411  0.47539902    -0.26200
S178        S  0.14693297  0.29707417  0.38148964    -0.03400
C179        C  0.12912755  0.31915733  0.38242428    -0.16900
C180        C  0.09598661  0.29833967  0.40529396    -0.14900
H181        H  0.03572615  0.24319767  0.45544505     0.20500
H182        H  0.12984623  0.23191433  0.42411640     0.16600
H183        H  0.08863496  0.17101255  0.47306035     0.19100
H184        H  0.07786108  0.30422652  0.40507519     0.12400
C185        C  0.08688823  0.22046965  0.16530989     0.16300
C186        C  0.11240475  0.25580134  0.16882071    -0.32700
C187        C  0.10894293  0.27364439  0.20861386     0.20700
C188        C  0.08101433  0.25746839  0.24232340     0.02900
C189        C  0.05474150  0.22209966  0.23801298    -0.22500
C190        C  0.05854686  0.20387708  0.19890621     0.12100
S191        S  0.08820489  0.19429116  0.12238777    -0.06100
C192        C  0.04991675  0.16025877  0.14925332    -0.09600
C193        C  0.03690038  0.16911739  0.18952171    -0.26200
S194        S  0.08260356  0.28445600  0.28748040    -0.03400
C195        C  0.12424969  0.31706397  0.26699329    -0.16900
C196        C  0.13208342  0.30768224  0.21981779    -0.14900
H197        H  0.13465266  0.26863731  0.14285671     0.20500
H198        H  0.03285191  0.20927947  0.26469373     0.16600
H199        H  0.01354228  0.15107990  0.21163372     0.19100
H200        H  0.15330744  0.32465403  0.19333023     0.12400
C201        C  0.24248888  0.42024197  0.23778059     0.16300
C202        C  0.27473512  0.44889798  0.21939183    -0.32700
C203        C  0.29766438  0.44302908  0.19797815     0.20700
C204        C  0.28875913  0.41015059  0.19593755     0.02900
C205        C  0.25702306  0.38190545  0.21508952    -0.22500
C206        C  0.23408524  0.38770782  0.23533889     0.12100
S207        S  0.21034820  0.42093341  0.26400712    -0.06100
C208        C  0.18377260  0.37617607  0.26786607    -0.09600
C209        C  0.20162936  0.36300701  0.25373965    -0.26200
S210        S  0.31883166  0.40748778  0.16737553    -0.03400
C211        C  0.34438015  0.45129167  0.15759125    -0.16900
C212        C  0.32987453  0.46698103  0.17629091    -0.14900
H213        H  0.28140642  0.47446272  0.22091064     0.20500
H214        H  0.25015265  0.35626017  0.21310687     0.16600
H215        H  0.19186864  0.33646599  0.25789949     0.19100
H216        H  0.34189578  0.49417157  0.17333056     0.12400
C217        C  0.10893151  0.39185993  0.19906256     0.16300
C218        C  0.10475886  0.40995625  0.16048786    -0.32700
C219        C  0.07872154  0.41373686  0.16867985     0.20700
C220        C  0.05756547  0.39970987  0.21318670     0.02900
C221        C  0.06089385  0.38032484  0.25067032    -0.22500
C222        C  0.08724114  0.37682370  0.24256900     0.12100
S223        S  0.14101143  0.38759365  0.19876197    -0.06100
C224        C  0.12759387  0.36778338  0.26105266    -0.09600
C225        C  0.09619203  0.36079856  0.27590769    -0.26200
S226        S  0.02953207  0.40972320  0.21822502    -0.03400
C227        C  0.04605345  0.43261499  0.15926877    -0.16900
C228        C  0.07195297  0.43221048  0.13718575    -0.14900
H229        H  0.12191625  0.42167761  0.12653771     0.20500
H230        H  0.04453171  0.36958731  0.28561900     0.16600
H231        H  0.08165078  0.34651111  0.31112969     0.19100
H232        H  0.08593836  0.44574182  0.10114923     0.12400
C233        C  0.37135232  0.13179051  0.71166752     0.16300
C234        C  0.39067067  0.12699761  0.67726089    -0.32700
C235        C  0.39057745  0.09871150  0.68641085     0.20700
C236        C  0.37253355  0.07633669  0.72856656     0.02900
C237        C  0.35260103  0.08090560  0.76270921    -0.22500
C238        C  0.35227284  0.10913966  0.75285552     0.12100
S239        S  0.36929062  0.16509593  0.70719555    -0.06100
C240        C  0.34259918  0.14958442  0.76289223    -0.09600
C241        C  0.33482456  0.11844727  0.78122037    -0.26200
S242        S  0.37768562  0.04464618  0.73397728    -0.03400
C243        C  0.40359869  0.06153006  0.67804126    -0.16900
C244        C  0.40801575  0.09015534  0.65703807    -0.14900
H245        H  0.40536816  0.14474290  0.64487049     0.20500
H246        H  0.33830470  0.06349989  0.79560174     0.16600
H247        H  0.31811388  0.10393505  0.81461055     0.19100
H248        H  0.42397670  0.10456569  0.62283684     0.12400
C249        C  0.42512295  0.31542348  0.69467778     0.16300
C250        C  0.42198925  0.28968344  0.72605210    -0.32700
C251        C  0.38972240  0.25741818  0.72841143     0.20700
C252        C  0.36212815  0.25114377  0.70057130     0.02900
C253        C  0.36529777  0.27655209  0.66886059    -0.22500
C254        C  0.39726871  0.30872466  0.66682853     0.12100
S255        S  0.46135416  0.35686513  0.68792411    -0.06100
C256        C  0.43851731  0.36502927  0.64716033    -0.09600
C257        C  0.40475542  0.33683284  0.63962646    -0.26200
S258        S  0.32503047  0.21122670  0.71004215    -0.03400
C259        C  0.34579411  0.20234842  0.75502068    -0.16900
C260        C  0.38089333  0.22944984  0.75821398    -0.14900
H261        H  0.44349071  0.29476790  0.74845975     0.20500
H262        H  0.34354721  0.27165232  0.64747170     0.16600
H263        H  0.38626772  0.33701878  0.61621361     0.19100
H264        H  0.39885976  0.22904096  0.78261581     0.12400
C265        C  0.17847665  0.10930697  0.73523886     0.16300
C266        C  0.20880399  0.13483622  0.76138470    -0.32700
C267        C  0.23542241  0.13145351  0.76229771     0.20700
C268        C  0.23180243  0.10377289  0.73881112     0.02900
C269        C  0.20105006  0.07753863  0.71460778    -0.22500
C270        C  0.17457864  0.08106682  0.71307934     0.12100
S271        S  0.14498295  0.11088837  0.72368395    -0.06100
C272        C  0.12541499  0.07297334  0.68890081    -0.09600
C273        C  0.14388061  0.05975613  0.68735481    -0.26200
S274        S  0.26804392  0.10621167  0.73905262    -0.03400
C275        C  0.28914019  0.14521366  0.77228430    -0.16900
C276        C  0.26767239  0.15476337  0.78230039    -0.14900
H277        H  0.21205838  0.15709779  0.77820611     0.20500
H278        H  0.19840658  0.05606747  0.69573368     0.16600
H279        H  0.13615412  0.03685630  0.66591974     0.19100
H280        H  0.27560786  0.17827061  0.80166407     0.12400
C281        C  0.38873120  0.10499452  0.97211569     0.16300
C282        C  0.36382204  0.11068656  0.96933257    -0.32700
C283        C  0.36764952  0.13315020  0.92984401     0.20700
C284        C  0.39558158  0.15018566  0.89583033     0.02900
C285        C  0.42055094  0.14440133  0.89833446    -0.22500
C286        C  0.41614543  0.12098137  0.93675926     0.12100
S287        S  0.38805177  0.07800421  0.01644382    -0.06100
C288        C  0.42460536  0.08742912  0.98625500    -0.09600
C289        C  0.43668397  0.11068245  0.94430197    -0.26200
S290        S  0.39538167  0.17673879  0.85157395    -0.03400
C291        C  0.35522713  0.16253742  0.87584169    -0.16900
C292        C  0.34495755  0.14022431  0.91927686    -0.14900
H293        H  0.34198004  0.09760117  0.99613397     0.20500
H294        H  0.44208631  0.15709721  0.87096470     0.16600
H295        H  0.45930428  0.11963386  0.92079745     0.19100
H296        H  0.32184037  0.12908993  0.94254055     0.12400
C297        C  0.37067690  0.27039089  0.87873423     0.16300
C298        C  0.37467462  0.30107814  0.88553426    -0.32700
C299        C  0.40341672  0.32726031  0.91354632     0.20700
C300        C  0.42794677  0.32368683  0.93174433     0.02900
C301        C  0.42389851  0.29294377  0.92475236    -0.22500
C302        C  0.39426530  0.26618374  0.89889032     0.12100
S303        S  0.33639001  0.23492642  0.84959422    -0.06100
C304        C  0.35316391  0.21286066  0.86563806    -0.09600
C305        C  0.38426658  0.23349900  0.89264716    -0.26200
S306        S  0.46042920  0.35804682  0.96631583    -0.03400
C307        C  0.43962483  0.37646076  0.95859285    -0.16900
C308        C  0.40991543  0.35751504  0.92905545    -0.14900
H309        H  0.35552155  0.30391014  0.87152852     0.20500
H310        H  0.44232387  0.28957847  0.94061809     0.16600
H311        H  0.39881188  0.22538569  0.90885531     0.19100
H312        H  0.39346234  0.36502413  0.92083744     0.12400
C313        C  0.18624154  0.07679934  0.94530688     0.16300
C314        C  0.21192249  0.07904017  0.91473104    -0.32700
C315        C  0.24452606  0.11102903  0.91243876     0.20700
C316        C  0.25109565  0.13872962  0.94067302     0.02900
C317        C  0.22582717  0.13649688  0.97129030    -0.22500
C318        C  0.19324788  0.10517399  0.97229104     0.12100
S319        S  0.14445702  0.04130785  0.95168813    -0.06100
C320        C  0.13654446  0.06544288  0.99016763    -0.09600
C321        C  0.16508700  0.09895014  0.99766174    -0.26200
S322        S  0.29107283  0.17523514  0.93242356    -0.03400
C323        C  0.29941843  0.15495005  0.88510266    -0.16900
C324        C  0.27244311  0.11975152  0.88204991    -0.14900
H325        H  0.20645419  0.05722628  0.89250676     0.20500
H326        H  0.23111273  0.15863506  0.99225090     0.16600
H327        H  0.16519831  0.11802720  0.02008975     0.19100
H328        H  0.27263442  0.10177081  0.85711183     0.12400
C329        C  0.33577030  0.67627422  0.84698701    -0.02100
C330        C  0.32920241  0.66837807  0.78163583    -0.02100
C331        C  0.14326805  0.85258077  0.28843311    -0.02100
C332        C  0.14534664  0.85516948  0.35553034    -0.02100
Zr333      Zr  0.46076800  0.54222584  0.10526025     2.17500
O334        O  0.44308590  0.55414864  0.18776678    -0.51000
O335        O  0.43856913  0.56409492  0.04589882    -0.74200
O336        O  0.49982631  0.60295606  0.13030215    -0.81000
O337        O  0.38062191  0.94621270  0.10462832    -0.82700
O338        O  0.05315643  0.62093710  0.10761932    -0.78400
O339        O  0.40045108  0.50162561  0.13340284    -0.90000
O340        O  0.45723310  0.56620012  0.96168996    -0.75900
O341        O  0.50482030  0.57087593  0.03903463    -0.85400
O342        O  0.43863168  0.50672017  0.02786575    -0.85100
O343        O  0.01029285  0.54728544  0.14624177    -0.71900
O344        O  0.44653242  0.98528939  0.13397287    -0.84000
Zr345      Zr  0.01741005  0.98398863  0.02895070     2.26400
Zr346      Zr  0.05426402  0.57435714  0.07858825     2.06300
Zr347      Zr  0.42633841  0.95193639  0.05419835     2.10000
Zr348      Zr  0.48279823  0.53555849  0.96240028     1.78800
O349        O  0.39254588  0.89676941  0.10018552    -0.92800
O350        O  0.02659312  0.59344143  0.92856492    -0.40600
O351        O  0.47089136  0.98148200  0.98877982    -0.77300
O352        O  0.03296707  0.54050584  0.99984389    -0.96000
O353        O  0.04301927  0.52150123  0.10507174    -0.89300
O354        O  0.47379837  0.95622334  0.09120389    -0.92100
C355        C  0.44155651  0.57184461  0.99623431     1.01700
C356        C  0.37532280  0.96560016  0.12984304     1.14600
C357        C  0.03150745  0.62495621  0.12750420     1.05400
O358        O  0.09652429  0.62677936  0.02991892    -0.94300
O359        O  0.10176638  0.57755408  0.03675771    -0.90000
O360        O  0.08173594  0.52467264  0.00606076    -0.83100
C361        C  0.10577470  0.55672541  0.01284457     1.12000
O362        O  0.48530064  0.50837068  0.25340555    -0.96200
Zr363      Zr  0.49785317  0.49495687  0.16729922     1.88900
O364        O  0.03401687  0.95598114  0.08808852    -0.72900
O365        O  0.09162403  0.59369547  0.15565272    -0.54100
O366        O  0.04979953  0.52896218  0.22211978    -0.96800
O367        O  0.45276936  0.93706635  0.21470572    -0.54000
O368        O  0.01650949  0.95627770  0.17208917    -0.73400
C369        C  0.02948799  0.94746615  0.13776882     0.99000
O370        O  0.03640045  0.97510359  0.94487854    -0.62200
O371        O  0.38149251  0.93109056  0.98798149    -0.57000
O372        O  0.48127321  0.92825164  0.99454414    -0.93700
O373        O  0.42682692  0.91203451  0.99702055    -0.92100
O374        O  0.43352717  0.00165432  0.90677037    -0.92500
O375        O  0.49887533  0.52655643  0.87570934    -0.91300
C376        C  0.44939636  0.90764391  0.98386673     1.17800
H377        H  0.41642812  0.00148669  0.01914176     0.33700
H378        H  0.05027454  0.55096124  0.97220650     0.44600
H379        H  0.46779839  0.93370317  0.09815770     0.38100
H380        H  0.01805612  0.56166618  0.17738900     0.34600
H381        H  0.51283779  0.59053262  0.88718807     0.26400
H382        H  0.10648656  0.58657041  0.14822047     0.32300
H383        H  0.04573092  0.51482720  0.25381045     0.38200
H384        H  0.43773880  0.51939268  0.87575376     0.32700
H385        H  0.36860017  0.90584783  0.98835596     0.31600
H386        H  0.40639247  0.88807010  0.09844200     0.33200
H387        H  0.46624877  0.93212118  0.23642700     0.32200
H388        H  0.00549434  0.51256470  0.88344959     0.36200
H389        H  0.53900937  0.95859290  0.94778166     0.28900
H390        H  0.44159803  0.57307042  0.17919364     0.33200
H391        H  0.46574554  0.50906025  0.24652820     0.36000
H392        H  0.36540581  0.93498279  0.00359089     0.28600
H393        H  0.01831597  0.46729049  0.91854052     0.41500
H394        H  0.08291030  0.63072263  0.00650568     0.31600
H395        H  0.02857857  0.60960634  0.95507472     0.39200
H396        H  0.44237876  0.91932202  0.18661494     0.31000
H397        H  0.10706224  0.61899898  0.15227600     0.31100
H398        H  0.46289806  0.56436371  0.21199003     0.31400
Zr399      Zr  0.01768690  0.98439868  0.61071040     2.17500
O400        O  0.03683432  0.96840438  0.68619566    -0.51000
O401        O  0.04504256  0.97000891  0.54658882    -0.74200
O402        O  0.48098112  0.92320861  0.62814238    -0.81000
O403        O  0.08904448  0.57826514  0.64301349    -0.82700
O404        O  0.42876994  0.90116813  0.59289253    -0.78400
O405        O  0.07554789  0.52481488  0.64941198    -0.90000
O406        O  0.03998597  0.98517428  0.46363793    -0.75900
O407        O  0.48467802  0.96505032  0.53384010    -0.85400
O408        O  0.04618223  0.53088863  0.54815043    -0.85100
O409        O  0.46221168  0.96773705  0.64071297    -0.71900
O410        O  0.02122599  0.52993393  0.65258570    -0.84000
Zr411      Zr  0.45678791  0.53797489  0.54189467     2.26400
Zr412      Zr  0.42957826  0.94864219  0.56018992     2.06300
Zr413      Zr  0.04676107  0.57570477  0.58884772     2.10000
Zr414      Zr  0.51253956  0.51194136  0.47198736     1.78800
O415        O  0.06565953  0.62115051  0.65337497    -0.92800
O416        O  0.48319453  0.96944223  0.40412980    -0.40600
O417        O  0.01214175  0.55551182  0.51072103    -0.77300
O418        O  0.45620421  0.99532610  0.49839118    -0.96000
O419        O  0.43083247  0.49136515  0.60350709    -0.89300
O420        O  0.49118757  0.55961660  0.61988673    -0.92100
C421        C  0.05020199  0.97265508  0.49593969     1.01700
C422        C  0.09506277  0.55725109  0.65831344     1.14600
C423        C  0.44983191  0.89804633  0.61738636     1.05400
O424        O  0.41314915  0.91352088  0.48051351    -0.94300
O425        O  0.38395513  0.94611425  0.51679146    -0.90000
O426        O  0.39780544  0.49722040  0.51311979    -0.83100
C427        C  0.37741520  0.96712173  0.50392169     1.12000
O428        O  0.47055500  0.49244150  0.76621069    -0.96200
Zr429      Zr  0.46543998  0.51283074  0.68092665     1.88900
O430        O  0.43025796  0.55280098  0.60621888    -0.72900
O431        O  0.37581979  0.90737584  0.60692045    -0.52100
O432        O  0.41228682  0.96800503  0.72923830    -0.96800
O433        O  0.99677479  0.55986812  0.74523638    -0.54000
O434        O  0.43177206  0.53430348  0.68855475    -0.73400
C435        C  0.42336730  0.54847494  0.65633412     0.99000
O436        O  0.43789242  0.55085301  0.46222562    -0.62200
O437        O  0.10160362  0.61059138  0.54193394    -0.57000
O438        O  0.49219544  0.59957228  0.52216846    -0.93700
O439        O  0.04797003  0.62046920  0.54321070    -0.92100
O440        O  0.06490371  0.55834506  0.43185806    -0.92500
O441        O  0.49910482  0.52757360  0.38925090    -0.91300
C442        C  0.02616491  0.62394925  0.52255460     1.17800
H443        H  0.06920167  0.53877662  0.53977607     0.33700
H444        H  0.44260761  0.98840255  0.46640603     0.44600
H445        H  0.99463635  0.57965665  0.63208561     0.38100
H446        H  0.45214770  0.94924723  0.66639208     0.34600
H447        H  0.47570234  0.94771735  0.42158973     0.26400
H448        H  0.38252556  0.90341727  0.64161427     0.32300
H449        H  0.40350275  0.47664780  0.74257174     0.38200
H450        H  0.06488388  0.57845671  0.43752322     0.32700
H451        H  0.09809834  0.62093630  0.51127847     0.31600
H452        H  0.06844837  0.61259750  0.68716993     0.33200
H453        H  0.50185612  0.57869070  0.73064993     0.32200
H454        H  0.49904154  0.54726249  0.39884891     0.36200
H455        H  0.43373124  0.56755597  0.47358419     0.28900
H456        H  0.03968406  0.95118623  0.67239863     0.33200
H457        H  0.49120265  0.49318466  0.76227986     0.36000
H458        H  0.11682371  0.63009348  0.56610540     0.28600
H459        H  0.45821737  0.56393058  0.43850225     0.41500
H460        H  0.41431553  0.89458742  0.49053421     0.31600
H461        H  0.46168855  0.96665973  0.39725255     0.39200
H462        H  0.00414289  0.58097764  0.72583000     0.31000
H463        H  0.36672850  0.92030795  0.61617296     0.31100
H464        H  0.51377883  0.95677192  0.71530434     0.31400
C465        C  0.23790162  0.91913218  0.42243159     0.16300
C466        C  0.26661082  0.94402123  0.45267230    -0.32700
C467        C  0.29442134  0.94230838  0.45417844     0.20700
C468        C  0.29348840  0.91708911  0.42651552     0.02900
C469        C  0.26528928  0.89301293  0.39555962    -0.22500
C470        C  0.23757981  0.89454945  0.39467184     0.12100
S471        S  0.20052018  0.91465146  0.41743099    -0.06100
C472        C  0.18328100  0.87835268  0.37737676    -0.09600
C473        C  0.20739744  0.87196777  0.36912475    -0.26200
S474        S  0.32810285  0.91728163  0.43563065    -0.03400
C475        C  0.34465199  0.95207501  0.47680647    -0.16900
C476        C  0.32420686  0.96297585  0.48279284    -0.14900
H477        H  0.26691715  0.96324326  0.47496670     0.20500
H478        H  0.26455163  0.87322968  0.37424916     0.16600
H479        H  0.20365355  0.85146879  0.34577451     0.19100
H480        H  0.33027445  0.98400088  0.50794105     0.12400
C481        C  0.09867444  0.94488675  0.41914852     0.16300
C482        C  0.11627578  0.93908884  0.38162151    -0.32700
C483        C  0.11961275  0.91287055  0.39268912     0.20700
C484        C  0.10642369  0.89386348  0.43902295     0.02900
C485        C  0.08996049  0.90034181  0.47726393    -0.22500
C486        C  0.08624664  0.92612004  0.46613821     0.12100
S487        S  0.08920005  0.97332816  0.41181870    -0.06100
C488        C  0.06868513  0.95997016  0.47301591    -0.09600
C489        C  0.06953070  0.93496858  0.49745192    -0.26200
S490        S  0.11211331  0.86290789  0.44444228    -0.03400
C491        C  0.12922228  0.87218492  0.38012572    -0.16900
C492        C  0.13478017  0.90228361  0.36089769    -0.14900
H493        H  0.12598523  0.95360906  0.34480203     0.20500
H494        H  0.07973767  0.88533875  0.51359845     0.16600
H495        H  0.05744869  0.92297906  0.53531844     0.19100
H496        H  0.14900648  0.91584889  0.32512372     0.12400
C497        C  0.05227926  0.70990178  0.46251273     0.16300
C498        C  0.05487130  0.73881660  0.44449324    -0.32700
C499        C  0.08627803  0.76618528  0.42189096     0.20700
C500        C  0.11304894  0.76408791  0.41580857     0.02900
C501        C  0.11077534  0.73563402  0.43425246    -0.22500
C502        C  0.08001059  0.70890886  0.45833426     0.12100
S503        S  0.01665587  0.67369568  0.49087115    -0.06100
C504        C  0.03994495  0.65776619  0.49857939    -0.09600
C505        C  0.07327107  0.67946013  0.47940670    -0.26200
S506        S  0.14754747  0.79823388  0.38392877    -0.03400
C507        C  0.12789763  0.81848006  0.38138686    -0.16900
C508        C  0.09436383  0.79677152  0.40245626    -0.14900
H509        H  0.03348081  0.74000760  0.44817456     0.20500
H510        H  0.13211196  0.73438086  0.42999097     0.16600
H511        H  0.09156572  0.67371968  0.48011146     0.19100
H512        H  0.07555844  0.80173556  0.40036331     0.12400
C513        C  0.08154424  0.72023285  0.15835646     0.16300
C514        C  0.10703969  0.75551037  0.16230826    -0.32700
C515        C  0.10440319  0.77276020  0.20413918     0.20700
C516        C  0.07723558  0.75613715  0.23925951     0.02900
C517        C  0.05077220  0.72091633  0.23428222    -0.22500
C518        C  0.05384809  0.70323834  0.19327097     0.12100
S519        S  0.08274957  0.69446294  0.11439109    -0.06100
C520        C  0.04547218  0.66012881  0.14299868    -0.09600
C521        C  0.03256644  0.66853090  0.18403283    -0.26200
S522        S  0.08008078  0.78237453  0.28714622    -0.03400
C523        C  0.12137687  0.81520622  0.26563974    -0.16900
C524        C  0.12783408  0.80654956  0.21631401    -0.14900
H525        H  0.12887362  0.76865165  0.13548627     0.20500
H526        H  0.02952070  0.70772074  0.26218758     0.16600
H527        H  0.01002308  0.65014891  0.20753548     0.19100
H528        H  0.14837863  0.82394651  0.18906537     0.12400
C529        C  0.23963935  0.91743856  0.23597849     0.16300
C530        C  0.27237947  0.94602203  0.21938393    -0.32700
C531        C  0.29447057  0.93979234  0.19562524     0.20700
C532        C  0.28416159  0.90658718  0.18897913     0.02900
C533        C  0.25199245  0.87834277  0.20666918    -0.22500
C534        C  0.23010369  0.88460024  0.23008292     0.12100
S535        S  0.20833570  0.91868069  0.26432963    -0.06100
C536        C  0.18093645  0.87390974  0.26590935    -0.09600
C537        C  0.19775827  0.86014419  0.24885500    -0.26200
S538        S  0.31348722  0.90370805  0.15804611    -0.03400
C539        C  0.34080312  0.94789920  0.15440438    -0.16900
C540        C  0.32725383  0.96379714  0.17617592    -0.14900
H541        H  0.28013170  0.97186258  0.22426810     0.20500
H542        H  0.24412862  0.85245407  0.20165421     0.16600
H543        H  0.18746632  0.83338534  0.25142453     0.19100
H544        H  0.34048093  0.99125705  0.17731763     0.12400
C545        C  0.10505208  0.88828927  0.19709595     0.16300
C546        C  0.10014413  0.90573446  0.15839773    -0.32700
C547        C  0.07291428  0.90778479  0.16585963     0.20700
C548        C  0.05103983  0.89235566  0.20936776     0.02900
C549        C  0.05496794  0.87332150  0.24664671    -0.22500
C550        C  0.08281141  0.87200630  0.23973477     0.12100
S551        S  0.13889394  0.88674697  0.19837883    -0.06100
C552        C  0.12502265  0.86593862  0.25985436    -0.09600
C553        C  0.09284795  0.85733444  0.27381021    -0.26200
S554        S  0.02224564  0.90142501  0.21468457    -0.03400
C555        C  0.03982876  0.92623016  0.15763814    -0.16900
C556        C  0.06617616  0.92662474  0.13545959    -0.14900
H557        H  0.11788438  0.91869350  0.12536666     0.20500
H558        H  0.03820112  0.86165302  0.28103155     0.16600
H559        H  0.07825398  0.84250063  0.30865782     0.19100
H560        H  0.08096458  0.94155823  0.10076035     0.12400
C561        C  0.37046001  0.63010153  0.70672496     0.16300
C562        C  0.38891899  0.62444399  0.67188153    -0.32700
C563        C  0.39034281  0.59735169  0.68349953     0.20700
C564        C  0.37422470  0.57669247  0.72803595     0.02900
C565        C  0.35478483  0.58185229  0.76234517    -0.22500
C566        C  0.35326322  0.60913230  0.75038972     0.12100
S567        S  0.36782321  0.66292687  0.70033183    -0.06100
C568        C  0.34364876  0.64968809  0.75866846    -0.09600
C569        C  0.33667704  0.61929089  0.77908735    -0.26200
S570        S  0.38134178  0.54654295  0.73624791    -0.03400
C571        C  0.40548877  0.56175771  0.67836724    -0.16900
C572        C  0.40788481  0.58871362  0.65468754    -0.14900
H573        H  0.40220305  0.64092944  0.63765099     0.20500
H574        H  0.34208037  0.56586723  0.79721456     0.16600
H575        H  0.32112692  0.60590628  0.81402018     0.19100
H576        H  0.42250537  0.60194464  0.61888509     0.12400
C577        C  0.42454646  0.81382008  0.68226108     0.16300
C578        C  0.42207321  0.78860833  0.71403327    -0.32700
C579        C  0.39002308  0.75630252  0.71761143     0.20700
C580        C  0.36207737  0.74931184  0.68991599     0.02900
C581        C  0.36464584  0.77416466  0.65742773    -0.22500
C582        C  0.39635536  0.80660733  0.65478113     0.12100
S583        S  0.46016894  0.85548391  0.67599069    -0.06100
C584        C  0.43666040  0.86332421  0.63640878    -0.09600
C585        C  0.40313917  0.83472845  0.62834030    -0.26200
S586        S  0.32521476  0.70956694  0.70156363    -0.03400
C587        C  0.34658656  0.70206060  0.74765871    -0.16900
C588        C  0.38167779  0.72919793  0.74927898    -0.14900
H589        H  0.44381520  0.79429725  0.73646550     0.20500
H590        H  0.34254405  0.76880134  0.63656083     0.16600
H591        H  0.38427521  0.83476212  0.60580617     0.19100
H592        H  0.39994637  0.72953526  0.77408411     0.12400
C593        C  0.17988112  0.60871871  0.73325109     0.16300
C594        C  0.21038659  0.63477806  0.75804589    -0.32700
C595        C  0.23686151  0.63132761  0.75940951     0.20700
C596        C  0.23289962  0.60297602  0.73803027     0.02900
C597        C  0.20190227  0.57615442  0.71536528    -0.22500
C598        C  0.17561086  0.57986656  0.71299139     0.12100
S599        S  0.14678139  0.61057425  0.72068978    -0.06100
C600        C  0.12687586  0.57201581  0.68792303    -0.09600
C601        C  0.14485417  0.55828967  0.68774826    -0.26200
S602        S  0.26908263  0.60545494  0.73812293    -0.03400
C603        C  0.29053643  0.64544093  0.76828415    -0.16900
C604        C  0.26931628  0.65528161  0.77753263    -0.14900
H605        H  0.21394334  0.65755114  0.77312891     0.20500
H606        H  0.19901344  0.55421203  0.69792315     0.16600
H607        H  0.13681128  0.53492768  0.66749681     0.19100
H608        H  0.27752255  0.67935126  0.79506634     0.12400
C609        C  0.38987089  0.60621711  0.96541941     0.16300
C610        C  0.36542740  0.61259730  0.96364315    -0.32700
C611        C  0.36955196  0.63554967  0.92481896     0.20700
C612        C  0.39738343  0.65243916  0.89058371     0.02900
C613        C  0.42192527  0.64604700  0.89220709    -0.22500
C614        C  0.41716387  0.62207754  0.92984044     0.12100
S615        S  0.38886140  0.57865851  0.00890633    -0.06100
C616        C  0.42517286  0.58776126  0.97819171    -0.09600
C617        C  0.43731722  0.61121836  0.93650799    -0.26200
S618        S  0.39734978  0.67921140  0.84660733    -0.03400
C619        C  0.35728523  0.66512884  0.87107548    -0.16900
C620        C  0.34705468  0.64294451  0.91466930    -0.14900
H621        H  0.34365147  0.59958765  0.99057700     0.20500
H622        H  0.44334118  0.65861719  0.86461608     0.16600
H623        H  0.45990320  0.62017282  0.91291318     0.19100
H624        H  0.32391408  0.63179843  0.93787068     0.12400
C625        C  0.37229110  0.77261291  0.86946651     0.16300
C626        C  0.37597679  0.80315890  0.87638106    -0.32700
C627        C  0.40382524  0.82883325  0.90654683     0.20700
C628        C  0.42788177  0.82497276  0.92625636     0.02900
C629        C  0.42431817  0.79462768  0.91871573    -0.22500
C630        C  0.39552656  0.76834102  0.89108764     0.12100
S631        S  0.33840195  0.73704829  0.83980311    -0.06100
C632        C  0.35509361  0.71514777  0.85772473    -0.09600
C633        C  0.38578567  0.73582571  0.88542368    -0.26200
S634        S  0.45891853  0.85808356  0.96401373    -0.03400
C635        C  0.43820092  0.87645233  0.95565597    -0.16900
C636        C  0.40958707  0.85850933  0.92353056    -0.14900
H637        H  0.35703949  0.80605448  0.86144160     0.20500
H638        H  0.44225595  0.79101847  0.93603198     0.16600
H639        H  0.39995507  0.72772047  0.90327584     0.19100
H640        H  0.39336341  0.86620785  0.91464905     0.12400
C641        C  0.18898906  0.58194202  0.94312408     0.16300
C642        C  0.21411262  0.58373119  0.91183474    -0.32700
C643        C  0.24693588  0.61530742  0.90936519     0.20700
C644        C  0.25421556  0.64335649  0.93741985     0.02900
C645        C  0.22945094  0.64153566  0.96914503    -0.22500
C646        C  0.19662929  0.61032984  0.97092337     0.12100
S647        S  0.14725148  0.54668619  0.94988557    -0.06100
C648        C  0.14002497  0.57055762  0.99038230    -0.09600
C649        C  0.16879130  0.60405266  0.99788411    -0.26200
S650        S  0.29442140  0.67947891  0.92766312    -0.03400
C651        C  0.30176414  0.65814981  0.88062646    -0.16900
C652        C  0.27443010  0.62310814  0.87887771    -0.14900
H653        H  0.20809492  0.56178023  0.88936089     0.20500
H654        H  0.23530764  0.66379561  0.99047275     0.16600
H655        H  0.16926822  0.62298717  0.02140683     0.19100
H656        H  0.27406018  0.60453496  0.85465865     0.12400
C657        C  0.83345363  0.17305373  0.85470289    -0.02100
C658        C  0.82688568  0.16657662  0.78910798    -0.02100
C659        C  0.64417491  0.35341050  0.28659209    -0.02100
C660        C  0.64622868  0.35622711  0.35380106    -0.02100
Zr661      Zr  0.96093203  0.04090912  0.11335141     2.17500
O662        O  0.94220223  0.05623480  0.19073595    -0.51000
O663        O  0.93870330  0.06321037  0.05484778    -0.74200
O664        O  0.00252536  0.10111772  0.14056550    -0.81000
O665        O  0.88288888  0.44625679  0.10668630    -0.82700
O666        O  0.55100306  0.12050695  0.10438385    -0.78400
O667        O  0.90150934  0.99968568  0.14699950    -0.90000
O668        O  0.95685679  0.06549616  0.97031992    -0.75900
O669        O  0.00307803  0.06798850  0.04388636    -0.85400
O670        O  0.93638912  0.00425456  0.03751046    -0.85100
O671        O  0.50805903  0.04539441  0.14604811    -0.71900
O672        O  0.94899682  0.48670406  0.13382959    -0.84000
Zr673      Zr  0.52027770  0.48776483  0.02615166     2.26400
Zr674      Zr  0.55185097  0.07329248  0.07808924     2.06300
Zr675      Zr  0.92874340  0.45369383  0.05386758     2.10000
Zr676      Zr  0.97845360  0.03142688  0.96888093     1.78800
O677        O  0.89096849  0.39594976  0.09046011    -0.92800
O678        O  0.52596765  0.09066864  0.92665154    -0.40600
O679        O  0.97327482  0.48247027  0.98854667    -0.77300
O680        O  0.53057371  0.03944094  0.99933458    -0.96000
O681        O  0.54033993  0.02029619  0.10504747    -0.89300
O682        O  0.97601855  0.45814765  0.09199502    -0.92100
C683        C  0.94183474  0.07149770  0.00542645     1.01700
C684        C  0.87768296  0.46558254  0.13238840     1.14600
C685        C  0.52954450  0.12460864  0.12486065     1.05400
O686        O  0.58970247  0.12104207  0.01783772    -0.94300
O687        O  0.60050724  0.07493867  0.04540776    -0.90000
O688        O  0.57972047  0.02282972  0.01033652    -0.83100
C689        C  0.60432046  0.05405888  0.02106855     1.12000
O690        O  0.98906918  0.00807520  0.25944384    -0.96200
Zr691      Zr  0.99870113  0.99340332  0.17187463     1.88900
O692        O  0.53646800  0.45964926  0.08625312    -0.72900
O693        O  0.59080564  0.10037639  0.15308497    -0.54100
O694        O  0.54262765  0.02322639  0.23081080    -0.96800
O695        O  0.95928137  0.44293059  0.22471539    -0.54000
O696        O  0.51802065  0.45979886  0.16952456    -0.73400
C697        C  0.53189338  0.45147863  0.13612250     0.99000
O698        O  0.54261906  0.48129282  0.94365734    -0.62200
O699        O  0.88857152  0.44013574  0.98284290    -0.57000
O700        O  0.98327611  0.42780231  0.99879688    -0.93700
O701        O  0.92887836  0.41171912  0.00279411    -0.92100
O702        O  0.93881710  0.50539333  0.90166271    -0.92500
O703        O  0.98697392  0.01760281  0.88000824    -0.91300
C704        C  0.95106219  0.40669968  0.99033402     1.17800
H705        H  0.91887996  0.50307071  0.01793577     0.33700
H706        H  0.54813404  0.04994234  0.97195686     0.44600
H707        H  0.96953387  0.43552960  0.09985992     0.38100
H708        H  0.51593094  0.05964978  0.17736353     0.34600
H709        H  0.00518471  0.08375420  0.88961101     0.26400
H710        H  0.59450258  0.08340491  0.16474877     0.32300
H711        H  0.54102078  0.00558751  0.25327309     0.38200
H712        H  0.92775838  0.01438348  0.89161618     0.32700
H713        H  0.89859591  0.43749292  0.95062358     0.31600
H714        H  0.89926081  0.39803789  0.12724567     0.33200
H715        H  0.97431342  0.44141398  0.24891206     0.32200
H716        H  0.50899533  0.01935249  0.88167598     0.36200
H717        H  0.04102981  0.45921170  0.94839113     0.28900
H718        H  0.94364486  0.07662747  0.17991779     0.33200
H719        H  0.99361655  0.03066576  0.25504067     0.36000
H720        H  0.86812522  0.41660573  0.99116812     0.28600
H721        H  0.51865997  0.96932844  0.91722084     0.41500
H722        H  0.60660771  0.14020121  0.04131229     0.31600
H723        H  0.53138835  0.10775949  0.95425886     0.39200
H724        H  0.94963440  0.42319134  0.20033915     0.31000
H725        H  0.61292124  0.11920399  0.13689738     0.31100
H726        H  0.96030267  0.06467667  0.21780473     0.31400
Zr727      Zr  0.52092287  0.48618742  0.61081040     2.17500
O728        O  0.54579850  0.46935653  0.67520309    -0.51000
O729        O  0.54866779  0.47328708  0.54436365    -0.74200
O730        O  0.98083072  0.42260333  0.63199176    -0.81000
O731        O  0.58789469  0.07899263  0.64742222    -0.82700
O732        O  0.92831214  0.40048850  0.59809353    -0.78400
O733        O  0.57465506  0.02552862  0.65145003    -0.90000
O734        O  0.54916047  0.49403196  0.46313232    -0.75900
O735        O  0.98461591  0.46347026  0.53248266    -0.85400
O736        O  0.54579542  0.03277878  0.55241312    -0.85100
O737        O  0.96443678  0.46793656  0.64077359    -0.71900
O738        O  0.51922667  0.03034543  0.65578616    -0.84000
Zr739      Zr  0.95489363  0.03806014  0.54223603     2.26400
Zr740      Zr  0.93011754  0.44782804  0.56194154     2.06300
Zr741      Zr  0.54567522  0.07699179  0.59382407     2.10000
Zr742      Zr  0.00746631  0.00810302  0.47120156     1.78800
O743        O  0.56122567  0.11841755  0.66408875    -0.92800
O744        O  0.97986086  0.46402325  0.40653157    -0.40600
O745        O  0.51237169  0.05722924  0.51458976    -0.77300
O746        O  0.95588998  0.49344717  0.49770526    -0.96000
O747        O  0.92880373  0.99198657  0.60495657    -0.89300
O748        O  0.99082770  0.05995529  0.61851679    -0.92100
C749        C  0.55697278  0.47906975  0.49468721     1.01700
C750        C  0.59394852  0.05781990  0.66168448     1.14600
C751        C  0.94926933  0.39750162  0.62324720     1.05400
O752        O  0.90769247  0.40431778  0.49290592    -0.94300
O753        O  0.88470448  0.44442051  0.51547788    -0.90000
O754        O  0.89621946  0.99756113  0.51107535    -0.83100
C755        C  0.87792742  0.46527798  0.50259759     1.12000
O756        O  0.97624869  0.99636055  0.76371121    -0.96200
Zr757      Zr  0.96484880  0.01379797  0.68089216     1.88900
O758        O  0.92960042  0.05361576  0.60793775    -0.72900
O759        O  0.87923697  0.41439621  0.61825872    -0.52100
O760        O  0.91457696  0.46764963  0.72627558    -0.96800
O761        O  0.49254737  0.05808203  0.74837029    -0.54000
O762        O  0.92977713  0.03359216  0.68953710    -0.73400
C763        C  0.92196747  0.04847978  0.65776336     0.99000
O764        O  0.93202452  0.05211634  0.46976612    -0.62200
O765        O  0.60094943  0.11434147  0.54902191    -0.57000
O766        O  0.99224625  0.09936799  0.51872820    -0.93700
O767        O  0.54779277  0.12214879  0.54712527    -0.92100
O768        O  0.56593749  0.05777517  0.43140188    -0.92500
O769        O  0.99782961  0.02536805  0.38647466    -0.91300
C770        C  0.52616680  0.12564429  0.52563624     1.17800
H771        H  0.56894889  0.04076593  0.54484923     0.33700
H772        H  0.94199415  0.48608902  0.46599992     0.44600
H773        H  0.49257110  0.07979374  0.63562565     0.38100
H774        H  0.95473340  0.45009960  0.66751604     0.34600
H775        H  0.99700551  0.46930902  0.37894606     0.26400
H776        H  0.86578944  0.39098271  0.60314060     0.32300
H777        H  0.89631629  0.95405535  0.69689209     0.38200
H778        H  0.58319223  0.05519445  0.44555071     0.32700
H779        H  0.59535192  0.11380909  0.51097718     0.31600
H780        H  0.55833228  0.10612920  0.69754169     0.33200
H781        H  0.99413933  0.07850555  0.73155750     0.32200
H782        H  0.98615027  0.03571926  0.39620920     0.36200
H783        H  0.93150469  0.07092111  0.48323982     0.28900
H784        H  0.54603614  0.45129235  0.65758736     0.33200
H785        H  0.00069815  0.00575806  0.76132522     0.36000
H786        H  0.61025680  0.13779226  0.56100185     0.28600
H787        H  0.94986253  0.06267646  0.44154844     0.41500
H788        H  0.92582940  0.40130010  0.48704890     0.31600
H789        H  0.97494222  0.44358465  0.42516140     0.39200
H790        H  0.49497199  0.07799756  0.73229395     0.31000
H791        H  0.88753965  0.41234679  0.65286863     0.31100
H792        H  0.02394886  0.45748680  0.70872644     0.31400
C793        C  0.73930244  0.41934244  0.41970670     0.16300
C794        C  0.76844845  0.44439001  0.44900000    -0.32700
C795        C  0.79560009  0.44168882  0.45147262     0.20700
C796        C  0.79366117  0.41540701  0.42557655     0.02900
C797        C  0.76507729  0.39122981  0.39532287    -0.22500
C798        C  0.73800280  0.39375178  0.39350028     0.12100
S799        S  0.70253302  0.41594338  0.41404509    -0.06100
C800        C  0.68419937  0.37878454  0.37565493    -0.09600
C801        C  0.70760924  0.37136539  0.36832059    -0.26200
S802        S  0.82756155  0.41452939  0.43599429    -0.03400
C803        C  0.84514359  0.45026894  0.47537327    -0.16900
C804        C  0.82556590  0.46227831  0.47967589    -0.14900
H805        H  0.76954337  0.46446098  0.46996877     0.20500
H806        H  0.76355083  0.37063952  0.37531652     0.16600
H807        H  0.70342294  0.35052102  0.34543291     0.19100
H808        H  0.83234633  0.48406780  0.50345898     0.12400
C809        C  0.60503874  0.45071519  0.41780816     0.16300
C810        C  0.62160813  0.44383400  0.37982088    -0.32700
C811        C  0.62383602  0.41682565  0.39078017     0.20700
C812        C  0.61085869  0.39834957  0.43758884     0.02900
C813        C  0.59559358  0.40597445  0.47626249    -0.22500
C814        C  0.59270749  0.43228601  0.46509493     0.12100
S815        S  0.59619635  0.47969195  0.41052028    -0.06100
C816        C  0.57590128  0.46677523  0.47200265    -0.09600
C817        C  0.57651547  0.44166332  0.49649163    -0.26200
S818        S  0.61501836  0.36634435  0.44296901    -0.03400
C819        C  0.63106308  0.37432316  0.37806779    -0.16900
C820        C  0.63751426  0.40482402  0.35848954    -0.14900
H821        H  0.63113196  0.45796783  0.34264487     0.20500
H822        H  0.58540084  0.39125740  0.51285911     0.16600
H823        H  0.56437618  0.42973936  0.53436010     0.19100
H824        H  0.65152476  0.41783650  0.32230672     0.12400
C825        C  0.55294967  0.21221005  0.46607035     0.16300
C826        C  0.55597914  0.24155351  0.44884508    -0.32700
C827        C  0.58675589  0.26800141  0.42334670     0.20700
C828        C  0.61246058  0.26462209  0.41415682     0.02900
C829        C  0.60974971  0.23575345  0.43169211    -0.22500
C830        C  0.57966672  0.20991789  0.45838865     0.12100
S831        S  0.51790626  0.17686010  0.49723899    -0.06100
C832        C  0.54010176  0.15951600  0.50129427    -0.09600
C833        C  0.57266941  0.18017721  0.47892672    -0.26200
S834        S  0.64624883  0.29772222  0.37959298    -0.03400
C835        C  0.62811883  0.31948576  0.38012819    -0.16900
C836        C  0.59515040  0.29874740  0.40367719    -0.14900
H837        H  0.53537208  0.24371733  0.45519277     0.20500
H838        H  0.63027072  0.23351623  0.42473580     0.16600
H839        H  0.59021603  0.17349568  0.47703776     0.19100
H840        H  0.57684560  0.30439948  0.40334455     0.12400
C841        C  0.58042925  0.22046634  0.15486919     0.16300
C842        C  0.60615932  0.25586331  0.15861589    -0.32700
C843        C  0.60470154  0.27317887  0.20189845     0.20700
C844        C  0.57837315  0.25639690  0.23853797     0.02900
C845        C  0.55205657  0.22107247  0.23430979    -0.22500
C846        C  0.55392086  0.20341426  0.19186258     0.12100
S847        S  0.57983417  0.19447113  0.10870719    -0.06100
C848        C  0.54361795  0.16003493  0.13966322    -0.09600
C849        C  0.53232022  0.16864295  0.18286124    -0.26200
S850        S  0.58162483  0.28261411  0.28697147    -0.03400
C851        C  0.62222653  0.31591090  0.26376885    -0.16900
C852        C  0.62821783  0.30718966  0.21392424    -0.14900
H853        H  0.62713470  0.26907826  0.13021070     0.20500
H854        H  0.53161206  0.20781086  0.26358481     0.16600
H855        H  0.51076667  0.15031332  0.20810697     0.19100
H856        H  0.64863693  0.32475405  0.18657390     0.12400
C857        C  0.74150468  0.41762902  0.23738595     0.16300
C858        C  0.77465685  0.44612280  0.22207927    -0.32700
C859        C  0.79697947  0.43977967  0.19962170     0.20700
C860        C  0.78665894  0.40653615  0.19362985     0.02900
C861        C  0.75402464  0.37832795  0.21017495    -0.22500
C862        C  0.73169075  0.38468262  0.23154721     0.12100
S863        S  0.70992078  0.41916801  0.26363357    -0.06100
C864        C  0.68194809  0.37439412  0.26436631    -0.09600
C865        C  0.69863525  0.36029912  0.24809613    -0.26200
S866        S  0.81624553  0.40361550  0.16349257    -0.03400
C867        C  0.84346201  0.44781318  0.15859347    -0.16900
C868        C  0.82980382  0.46371219  0.18003844    -0.14900
H869        H  0.78245124  0.47200585  0.22650674     0.20500
H870        H  0.74603921  0.35238941  0.20530057     0.16600
H871        H  0.68781458  0.33338592  0.25010505     0.19100
H872        H  0.84282704  0.49114687  0.18023831     0.12400
C873        C  0.60829439  0.39279796  0.19774550     0.16300
C874        C  0.60425983  0.41141564  0.15999625    -0.32700
C875        C  0.57720467  0.41379124  0.16737598     0.20700
C876        C  0.55504755  0.39811435  0.21049445     0.02900
C877        C  0.55838232  0.37834021  0.24724579    -0.22500
C878        C  0.58564124  0.37607796  0.23980892     0.12100
S879        S  0.64113695  0.38961128  0.19791945    -0.06100
C880        C  0.62629518  0.36732091  0.25811703    -0.09600
C881        C  0.59448004  0.35959041  0.27238052    -0.26200
S882        S  0.52583082  0.40674317  0.21484316    -0.03400
C883        C  0.54328883  0.43133041  0.15749370    -0.16900
C884        C  0.57026723  0.43234232  0.13638856    -0.14900
H885        H  0.62215802  0.42443831  0.12716797     0.20500
H886        H  0.54119960  0.36623079  0.28109126     0.16600
H887        H  0.57950863  0.34431745  0.30670191     0.19100
H888        H  0.58500473  0.44709223  0.10153981     0.12400
C889        C  0.86709134  0.12849112  0.70971872     0.16300
C890        C  0.88476549  0.12249613  0.67347246    -0.32700
C891        C  0.88701397  0.09584312  0.68495712     0.20700
C892        C  0.87248694  0.07603288  0.73068418     0.02900
C893        C  0.85345275  0.08117503  0.76593892    -0.22500
C894        C  0.85097263  0.10782950  0.75403476     0.12100
S895        S  0.86429198  0.16141360  0.70481283    -0.06100
C896        C  0.84125212  0.14821613  0.76430478    -0.09600
C897        C  0.83458385  0.11776729  0.78376242    -0.26200
S898        S  0.88108879  0.04702271  0.73930911    -0.03400
C899        C  0.90364465  0.06134701  0.67991829    -0.16900
C900        C  0.90433184  0.08717827  0.65534795    -0.14900
H901        H  0.89706901  0.13855245  0.63852704     0.20500
H902        H  0.84191522  0.06576497  0.80166189     0.16600
H903        H  0.81948185  0.10422104  0.81896072     0.19100
H904        H  0.91779827  0.09978653  0.61851223     0.12400
C905        C  0.92255364  0.31361969  0.69285625     0.16300
C906        C  0.91991860  0.28815072  0.72433744    -0.32700
C907        C  0.88769909  0.25590274  0.72818305     0.20700
C908        C  0.85965252  0.24938697  0.70148934     0.02900
C909        C  0.86232979  0.27452924  0.66949947    -0.22500
C910        C  0.89429846  0.30675138  0.66609896     0.12100
S911        S  0.95868432  0.35499702  0.68497817    -0.06100
C912        C  0.93540079  0.36307655  0.64519965    -0.09600
C913        C  0.90147456  0.33480933  0.63874806    -0.26200
S914        S  0.82272281  0.20953403  0.71279083    -0.03400
C915        C  0.84427087  0.20101450  0.75681387    -0.16900
C916        C  0.87939101  0.22820326  0.75850316    -0.14900
H917        H  0.94180507  0.29347219  0.74582818     0.20500
H918        H  0.84021763  0.26941625  0.64903018     0.16600
H919        H  0.88270144  0.33494822  0.61612631     0.19100
H920        H  0.89776530  0.22806530  0.78221183     0.12400
C921        C  0.67767447  0.10754440  0.73988326     0.16300
C922        C  0.70774415  0.13285350  0.76659963    -0.32700
C923        C  0.73439200  0.12959208  0.76719974     0.20700
C924        C  0.73090712  0.10206704  0.74331334     0.02900
C925        C  0.70038241  0.07599645  0.71864988    -0.22500
C926        C  0.67400681  0.07957514  0.71699176     0.12100
S927        S  0.64447276  0.10940470  0.72800686    -0.06100
C928        C  0.62548933  0.07212075  0.69184346    -0.09600
C929        C  0.64375847  0.05874273  0.69017829    -0.26200
S930        S  0.76714545  0.10469737  0.74284012    -0.03400
C931        C  0.78816399  0.14375284  0.77583584    -0.16900
C932        C  0.76665308  0.15308364  0.78670066    -0.14900
H933        H  0.71088624  0.15499983  0.78369741     0.20500
H934        H  0.69795517  0.05478608  0.69918475     0.16600
H935        H  0.63627332  0.03617262  0.66794752     0.19100
H936        H  0.77458314  0.17660311  0.80601809     0.12400
C937        C  0.88953225  0.10465921  0.97260523     0.16300
C938        C  0.86421749  0.10970566  0.96931678    -0.32700
C939        C  0.86786839  0.13209873  0.92995604     0.20700
C940        C  0.89587421  0.14953065  0.89611494     0.02900
C941        C  0.92123325  0.14423644  0.89889641    -0.22500
C942        C  0.91711752  0.12100798  0.93756597     0.12100
S943        S  0.88912901  0.07808198  0.01742771    -0.06100
C944        C  0.92599544  0.08799161  0.98788279    -0.09600
C945        C  0.93803903  0.11119487  0.94577718    -0.26200
S946        S  0.89533890  0.17614490  0.85228436    -0.03400
C947        C  0.85514425  0.16162493  0.87707550    -0.16900
C948        C  0.84500650  0.13896264  0.91989980    -0.14900
H949        H  0.84228521  0.09634372  0.99593372     0.20500
H950        H  0.94291219  0.15727326  0.87179846     0.16600
H951        H  0.96080015  0.12032547  0.92253694     0.19100
H952        H  0.82188904  0.12746709  0.94328235     0.12400
C953        C  0.86896206  0.26839179  0.88442761     0.16300
C954        C  0.87253173  0.29872530  0.89316343    -0.32700
C955        C  0.90122376  0.32459874  0.92169738     0.20700
C956        C  0.92575396  0.32088359  0.93933717     0.02900
C957        C  0.92187673  0.29038250  0.93105545    -0.22500
C958        C  0.89265937  0.26414616  0.90392194     0.12100
S959        S  0.83543795  0.23350800  0.85290285    -0.06100
C960        C  0.85266497  0.21168331  0.86756301    -0.09600
C961        C  0.88340249  0.23198330  0.89538972    -0.26200
S962        S  0.95871280  0.35518343  0.97330777    -0.03400
C963        C  0.93844382  0.37407711  0.96542052    -0.16900
C964        C  0.90825485  0.35507714  0.93694710    -0.14900
H965        H  0.85343995  0.30172125  0.87942823     0.20500
H966        H  0.94041652  0.28696083  0.94614946     0.16600
H967        H  0.89804263  0.22386052  0.91111561     0.19100
H968        H  0.89210544  0.36294444  0.92864062     0.12400
C969        C  0.68787366  0.07699319  0.95628327     0.16300
C970        C  0.71252521  0.07885958  0.92337221    -0.32700
C971        C  0.74523132  0.11059567  0.91968626     0.20700
C972        C  0.75297536  0.13834303  0.94920439     0.02900
C973        C  0.72879148  0.13637515  0.98265650    -0.22500
C974        C  0.69593112  0.10533990  0.98473066     0.12100
S975        S  0.64584674  0.04228595  0.96239855    -0.06100
C976        C  0.63897337  0.06666585  0.00237105    -0.09600
C977        C  0.66819865  0.09963199  0.01122569    -0.26200
S978        S  0.79282601  0.17461440  0.93856718    -0.03400
C979        C  0.79943902  0.15414153  0.88878286    -0.16900
C980        C  0.77205531  0.11902970  0.88650777    -0.14900
H981        H  0.70603546  0.05705218  0.89994525     0.20500
H982        H  0.73495980  0.15861797  0.00443181     0.16600
H983        H  0.66890511  0.11887105  0.03422741     0.19100
H984        H  0.77126827  0.10084243  0.86057296     0.12400
C985        C  0.83432647  0.67269053  0.85044261    -0.02100
C986        C  0.82752686  0.66627781  0.78486442    -0.02100
C987        C  0.64335966  0.85361345  0.28939177    -0.02100
C988        C  0.64443735  0.85494291  0.35669217    -0.02100
Zr989      Zr  0.96075518  0.54035477  0.10949338     2.17500
O990        O  0.94154636  0.55050192  0.19203976    -0.51000
O991        O  0.93905193  0.56309032  0.05112347    -0.74200
O992        O  0.99938364  0.60088525  0.13442777    -0.81000
O993        O  0.88178692  0.94731228  0.11415200    -0.82700
O994        O  0.55371761  0.62305985  0.10451733    -0.78400
O995        O  0.90015531  0.49839101  0.13692529    -0.90000
O996        O  0.95864630  0.56640283  0.96718462    -0.75900
O997        O  0.00587426  0.56987576  0.04481624    -0.85400
O998        O  0.93955386  0.50674347  0.03030439    -0.85100
O999        O  0.51004281  0.54883444  0.14204428    -0.71900
O1000       O  0.94927942  0.98751868  0.14013841    -0.84000
Zr1001     Zr  0.51867496  0.98602271  0.02705022     2.26400
Zr1002     Zr  0.55343058  0.57600092  0.07359345     2.06300
Zr1003     Zr  0.92628694  0.95154028  0.06296734     2.10000
Zr1004     Zr  0.98476187  0.53659723  0.96644531     1.78800
O1005       O  0.89495086  0.89905708  0.11580022    -0.92800
O1006       O  0.52552124  0.58901668  0.91629358    -0.40600
O1007       O  0.96827564  0.97829271  0.99352216    -0.77300
O1008       O  0.53170132  0.54071074  0.99635370    -0.96000
O1009       O  0.54254054  0.52353635  0.10252804    -0.89300
O1010       O  0.97466924  0.95659124  0.09678286    -0.92100
C1011       C  0.94257146  0.57144808  0.00168232     1.01700
C1012       C  0.87804473  0.96710807  0.14159175     1.14600
C1013       C  0.53204700  0.62705195  0.12426792     1.05400
O1014       O  0.58855950  0.62406676  0.01259208    -0.94300
O1015       O  0.60191724  0.57829969  0.03898772    -0.90000
O1016       O  0.58116463  0.52530434  0.00797954    -0.83100
C1017       C  0.60559308  0.55700739  0.01599007     1.12000
O1018       O  0.98013166  0.50197131  0.25461427    -0.96200
Zr1019     Zr  0.99801807  0.49325878  0.16931863     1.88900
O1020       O  0.53611966  0.95847362  0.08519894    -0.72900
O1021       O  0.59486442  0.60347853  0.14558094    -0.54100
O1022       O  0.54847952  0.52683546  0.22338844    -0.96800
O1023       O  0.95458601  0.94362179  0.22387596    -0.54000
O1024       O  0.51877142  0.95913219  0.16906953    -0.73400
C1025       C  0.53236357  0.95084712  0.13515685     0.99000
O1026       O  0.53783192  0.97800708  0.94228505    -0.62200
O1027       O  0.87946299  0.92762915  0.99965354    -0.57000
O1028       O  0.97891184  0.92519263  0.00072368    -0.93700
O1029       O  0.92437093  0.90791218  0.01194217    -0.92100
O1030       O  0.92591649  0.99786323  0.91721235    -0.92500
O1031       O  0.00483950  0.53241795  0.87992103    -0.91300
C1032       C  0.94646701  0.90333141  0.99623417     1.17800
H1033       H  0.91540362  0.00056047  0.02703965     0.33700
H1034       H  0.54903728  0.55081820  0.96877670     0.44600
H1035       H  0.96813241  0.93401297  0.10493000     0.38100
H1036       H  0.51780251  0.56338741  0.17296911     0.34600
H1037       H  0.01477049  0.59494383  0.89800365     0.26400
H1038       H  0.58154541  0.60155578  0.17714268     0.32300
H1039       H  0.54285468  0.51155757  0.25422081     0.38200
H1040       H  0.94018204  0.52341371  0.88070592     0.32700
H1041       H  0.87315248  0.94352375  0.99949817     0.31600
H1042       H  0.87541462  0.88191177  0.09314494     0.33200
H1043       H  0.96730962  0.93952483  0.24919073     0.32200
H1044       H  0.50465094  0.51057410  0.88284320     0.36200
H1045       H  0.03506528  0.95415059  0.94975784     0.28900
H1046       H  0.93689137  0.56707591  0.18245935     0.33200
H1047       H  0.99698137  0.52669712  0.26244459     0.36000
H1048       H  0.89018668  0.93086791  0.96433337     0.28600
H1049       H  0.52435373  0.47292966  0.91693383     0.41500
H1050       H  0.60883823  0.64152871  0.03374125     0.31600
H1051       H  0.53093726  0.60726712  0.94151743     0.39200
H1052       H  0.94397838  0.92414249  0.19876415     0.31000
H1053       H  0.60081954  0.58769559  0.15328146     0.31100
H1054       H  0.96194546  0.56344198  0.21523181     0.31400
Zr1055     Zr  0.51798550  0.98540952  0.61307198     2.17500
O1056       O  0.53436883  0.96928301  0.69207659    -0.51000
O1057       O  0.54625347  0.97110461  0.55105568    -0.74200
O1058       O  0.98075169  0.92235492  0.62904352    -0.81000
O1059       O  0.58745381  0.58120535  0.65019191    -0.82700
O1060       O  0.92766646  0.90026385  0.59775352    -0.78400
O1061       O  0.57536502  0.52827701  0.65408237    -0.90000
O1062       O  0.54363744  0.98843033  0.46836909    -0.75900
O1063       O  0.98206959  0.96227447  0.53393485    -0.85400
O1064       O  0.54717158  0.53319754  0.54954674    -0.85100
O1065       O  0.96284880  0.96782864  0.64164795    -0.71900
O1066       O  0.52106139  0.53046404  0.65416488    -0.84000
Zr1067     Zr  0.95707487  0.53832269  0.54067899     2.26400
Zr1068     Zr  0.92793464  0.94713172  0.56346730     2.06300
Zr1069     Zr  0.54609352  0.57683883  0.59122503     2.10000
Zr1070     Zr  0.01126755  0.51028240  0.47114406     1.78800
O1071       O  0.56193427  0.62350297  0.65130131    -0.92800
O1072       O  0.97306259  0.96013898  0.41001184    -0.40600
O1073       O  0.51237196  0.55642142  0.51235059    -0.77300
O1074       O  0.95290782  0.99265635  0.49925942    -0.96000
O1075       O  0.93079541  0.49238372  0.60343448    -0.89300
O1076       O  0.99239059  0.55996488  0.61789945    -0.92100
C1077       C  0.55254385  0.97467041  0.50073402     1.01700
C1078       C  0.59393148  0.56046589  0.66490771     1.14600
C1079       C  0.94917035  0.89721251  0.62082215     1.05400
O1080       O  0.90719627  0.90756805  0.48875286    -0.94300
O1081       O  0.88227729  0.94398766  0.51907472    -0.90000
O1082       O  0.89800370  0.49785795  0.51037804    -0.83100
C1083       C  0.87586916  0.96488728  0.50486757     1.12000
O1084       O  0.97754936  0.49642433  0.76323466    -0.96200
Zr1085     Zr  0.96625812  0.51375463  0.68010022     1.88900
O1086       O  0.93103892  0.55357864  0.60517944    -0.72900
O1087       O  0.87653742  0.90756605  0.61644586    -0.52100
O1088       O  0.91256193  0.96784141  0.72595580    -0.96800
O1089       O  0.49822429  0.55815554  0.74664212    -0.54000
O1090       O  0.93054386  0.53304171  0.68680734    -0.73400
C1091       C  0.92294087  0.54805700  0.65483516     0.99000
O1092       O  0.93782309  0.55191692  0.46230422    -0.62200
O1093       O  0.60251599  0.61280459  0.54937820    -0.57000
O1094       O  0.99377567  0.59990072  0.52018575    -0.93700
O1095       O  0.54691953  0.61996595  0.54061333    -0.92100
O1096       O  0.56430991  0.55843529  0.42661645    -0.92500
O1097       O  0.00371039  0.52857715  0.38563488    -0.91300
C1098       C  0.52467702  0.62336604  0.52169220     1.17800
H1099       H  0.57043159  0.54178311  0.54146721     0.33700
H1100       H  0.93865577  0.98534065  0.46799606     0.44600
H1101       H  0.49292641  0.57896459  0.63442379     0.38100
H1102       H  0.95342602  0.94989629  0.66822292     0.34600
H1103       H  0.96725472  0.93975653  0.43004328     0.26400
H1104       H  0.86244056  0.91591608  0.61320662     0.32300
H1105       H  0.91176445  0.47900080  0.75628874     0.38200
H1106       H  0.57092299  0.57939260  0.44556404     0.32700
H1107       H  0.59931775  0.62128943  0.51590701     0.31600
H1108       H  0.56402698  0.61605607  0.68677467     0.33200
H1109       H  0.97880044  0.55564215  0.77017206     0.32200
H1110       H  0.99746979  0.54395737  0.39496493     0.36200
H1111       H  0.93542114  0.56984633  0.47377952     0.28900
H1112       H  0.53724500  0.95176255  0.68008562     0.33200
H1113       H  0.99288507  0.49028989  0.75297399     0.36000
H1114       H  0.61581249  0.63334204  0.57238565     0.28600
H1115       H  0.95751369  0.56360722  0.43725262     0.41500
H1116       H  0.89426432  0.88446079  0.50511303     0.31600
H1117       H  0.95103234  0.95678565  0.40654929     0.39200
H1118       H  0.52119035  0.56332137  0.74630410     0.31000
H1119       H  0.86381842  0.88581042  0.59620842     0.31100
H1120       H  0.01707125  0.95562899  0.71105090     0.31400
C1121       C  0.73699747  0.91764178  0.42352699     0.16300
C1122       C  0.76624797  0.94307819  0.45208155    -0.32700
C1123       C  0.79342847  0.94049303  0.45466542     0.20700
C1124       C  0.79139215  0.91388879  0.42973766     0.02900
C1125       C  0.76259773  0.88917125  0.40049424    -0.22500
C1126       C  0.73553316  0.89165867  0.39842149     0.12100
S1127       S  0.70054607  0.91462727  0.41673949    -0.06100
C1128       C  0.68206413  0.87701130  0.37955373    -0.09600
C1129       C  0.70522392  0.86920423  0.37326963    -0.26200
S1130       S  0.82552425  0.91343802  0.43977855    -0.03400
C1131       C  0.84317340  0.94967891  0.47785448    -0.16900
C1132       C  0.82359603  0.96163321  0.48193555    -0.14900
H1133       H  0.76750385  0.96349965  0.47211531     0.20500
H1134       H  0.76100995  0.86836413  0.38117291     0.16600
H1135       H  0.70131607  0.84850365  0.35042087     0.19100
H1136       H  0.83049712  0.98371292  0.50501433     0.12400
C1137       C  0.59835872  0.94461422  0.42255632     0.16300
C1138       C  0.61416017  0.93754770  0.38368506    -0.32700
C1139       C  0.61916025  0.91267781  0.39576432     0.20700
C1140       C  0.60898354  0.89579078  0.44409344     0.02900
C1141       C  0.59472258  0.90395616  0.48404439    -0.22500
C1142       C  0.58947997  0.92864274  0.47199324     0.12100
S1143       S  0.58712397  0.97148342  0.41394495    -0.06100
C1144       C  0.57071973  0.96158454  0.47796912    -0.09600
C1145       C  0.57417266  0.93872601  0.50432411    -0.26200
S1146       S  0.61547019  0.86529323  0.44915157    -0.03400
C1147       C  0.62879417  0.87214101  0.38251411    -0.16900
C1148       C  0.63330373  0.90159360  0.36289319    -0.14900
H1149       H  0.62116676  0.95001101  0.34506305     0.20500
H1150       H  0.58710814  0.89090985  0.52221342     0.16600
H1151       H  0.56477011  0.92896231  0.54422689     0.19100
H1152       H  0.64642939  0.91480053  0.32634154     0.12400
C1153       C  0.55081853  0.70967221  0.46348447     0.16300
C1154       C  0.55430775  0.73960323  0.44883880    -0.32700
C1155       C  0.58461224  0.76575747  0.42213664     0.20700
C1156       C  0.60932451  0.76151178  0.40905318     0.02900
C1157       C  0.60607218  0.73193147  0.42369971    -0.22500
C1158       C  0.57658666  0.70646095  0.45189717     0.12100
S1159       S  0.51655778  0.67494757  0.49680001    -0.06100
C1160       C  0.53794598  0.65671596  0.49654725    -0.09600
C1161       C  0.56955284  0.67649767  0.47112375    -0.26200
S1162       S  0.64283375  0.79475830  0.37436809    -0.03400
C1163       C  0.62604590  0.81765345  0.38056506    -0.16900
C1164       C  0.59354025  0.79720162  0.40542390    -0.14900
H1165       H  0.53454864  0.74256376  0.45846041     0.20500
H1166       H  0.62587419  0.72903883  0.41393867     0.16600
H1167       H  0.58651860  0.66920869  0.46671957     0.19100
H1168       H  0.57592705  0.80366985  0.40840290     0.12400
C1169       C  0.58154458  0.72253917  0.15545372     0.16300
C1170       C  0.60680612  0.75796631  0.15935715    -0.32700
C1171       C  0.60457226  0.77493516  0.20224128     0.20700
C1172       C  0.57761186  0.75792398  0.23782403     0.02900
C1173       C  0.55161147  0.72257066  0.23319402    -0.22500
C1174       C  0.55456967  0.70514228  0.19163441     0.12100
S1175       S  0.58232653  0.69695587  0.11030497    -0.06100
C1176       C  0.54601153  0.66220617  0.14041515    -0.09600
C1177       C  0.53373959  0.67034662  0.18282781    -0.26200
S1178       S  0.58025297  0.78366568  0.28645060    -0.03400
C1179       C  0.62153594  0.81666783  0.26516901    -0.16900
C1180       C  0.62829564  0.80860509  0.21551209    -0.14900
H1181       H  0.62825148  0.77138732  0.13180912     0.20500
H1182       H  0.53082424  0.70907534  0.26187721     0.16600
H1183       H  0.51188457  0.65175921  0.20737359     0.19100
H1184       H  0.64947894  0.82631228  0.18937542     0.12400
C1185       C  0.74121433  0.91871319  0.24407180     0.16300
C1186       C  0.77452151  0.94745795  0.22986645    -0.32700
C1187       C  0.79734591  0.94145430  0.20852409     0.20700
C1188       C  0.78730054  0.90829095  0.20272168     0.02900
C1189       C  0.75455136  0.87988019  0.21815379    -0.22500
C1190       C  0.73173047  0.88587764  0.23821993     0.12100
S1191       S  0.70898105  0.91974719  0.26864697    -0.06100
C1192       C  0.68136050  0.87497220  0.26853706    -0.09600
C1193       C  0.69843013  0.86118474  0.25318011    -0.26200
S1194       S  0.81717663  0.90557497  0.17361083    -0.03400
C1195       C  0.84419935  0.94975106  0.16866850    -0.16900
C1196       C  0.83032332  0.96557327  0.18952465    -0.14900
H1197       H  0.78202214  0.97324258  0.23411961     0.20500
H1198       H  0.74682120  0.85403651  0.21321555     0.16600
H1199       H  0.68760091  0.83425217  0.25460564     0.19100
H1200       H  0.84314497  0.99297296  0.18927172     0.12400
C1201       C  0.60753713  0.89146757  0.19741784     0.16300
C1202       C  0.60341332  0.90946521  0.15858772    -0.32700
C1203       C  0.57667516  0.91231572  0.16571543     0.20700
C1204       C  0.55476795  0.89737936  0.20928951     0.02900
C1205       C  0.55788191  0.87783746  0.24662552    -0.22500
C1206       C  0.58495363  0.87536995  0.23972471     0.12100
S1207       S  0.64066870  0.88881137  0.19922469    -0.06100
C1208       C  0.62590568  0.86766277  0.26038606    -0.09600
C1209       C  0.59386448  0.85959778  0.27356010    -0.26200
S1210       S  0.52638231  0.90689797  0.21403978    -0.03400
C1211       C  0.54377045  0.93084547  0.15625092    -0.16900
C1212       C  0.57010856  0.93104223  0.13452778    -0.14900
H1213       H  0.62123912  0.92202512  0.12556184     0.20500
H1214       H  0.54092796  0.86640684  0.28084626     0.16600
H1215       H  0.57878037  0.84464969  0.30802681     0.19100
H1216       H  0.58467557  0.94536795  0.09930232     0.12400
C1217       C  0.86876447  0.62870275  0.70666471     0.16300
C1218       C  0.88793974  0.62378127  0.67201015    -0.32700
C1219       C  0.88903372  0.59629350  0.68240735     0.20700
C1220       C  0.87183927  0.57452025  0.72549171     0.02900
C1221       C  0.85169826  0.57893095  0.75945751    -0.22500
C1222       C  0.85058386  0.60663195  0.74885549     0.12100
S1223       S  0.86660843  0.66203125  0.70236659    -0.06100
C1224       C  0.84139784  0.64746326  0.75970779    -0.09600
C1225       C  0.83372239  0.61634403  0.77803475    -0.26200
S1226       S  0.87873601  0.54412149  0.73275953    -0.03400
C1227       C  0.90442379  0.56079942  0.67655014    -0.16900
C1228       C  0.90731738  0.58832656  0.65394934    -0.14900
H1229       H  0.90210236  0.64117075  0.63901702     0.20500
H1230       H  0.83824410  0.56211502  0.79327700     0.16600
H1231       H  0.81765198  0.60222700  0.81219788     0.19100
H1232       H  0.92284597  0.60245194  0.61926021     0.12400
C1233       C  0.92349000  0.81303872  0.68786697     0.16300
C1234       C  0.92092572  0.78762242  0.71943432    -0.32700
C1235       C  0.88863443  0.75548310  0.72379502     0.20700
C1236       C  0.86054496  0.74901373  0.69732207     0.02900
C1237       C  0.86310531  0.77411105  0.66552360    -0.22500
C1238       C  0.89507091  0.80622838  0.66175510     0.12100
S1239       S  0.95958985  0.85439579  0.67955304    -0.06100
C1240       C  0.93589844  0.86258763  0.64105825    -0.09600
C1241       C  0.90199758  0.83428894  0.63486254    -0.26200
S1242       S  0.82365506  0.70925663  0.70847673    -0.03400
C1243       C  0.84513241  0.70072342  0.75260483    -0.16900
C1244       C  0.88028160  0.72783504  0.75428500    -0.14900
H1245       H  0.94288971  0.79291592  0.74063328     0.20500
H1246       H  0.84089065  0.76904578  0.64548687     0.16600
H1247       H  0.88298239  0.83447479  0.61310961     0.19100
H1248       H  0.89863368  0.72763923  0.77796817     0.12400
C1249       C  0.67875010  0.61058608  0.74016967     0.16300
C1250       C  0.70955084  0.63585300  0.76528867    -0.32700
C1251       C  0.73551595  0.63155056  0.76525660     0.20700
C1252       C  0.73086209  0.60330616  0.74197796     0.02900
C1253       C  0.69960206  0.57726512  0.71926353    -0.22500
C1254       C  0.67382898  0.58171153  0.71857903     0.12100
S1255       S  0.64600571  0.61332025  0.72868245    -0.06100
C1256       C  0.62547441  0.57495213  0.69502969    -0.09600
C1257       C  0.64301685  0.56082696  0.69362663    -0.26200
S1258       S  0.76654418  0.60488988  0.73989518    -0.03400
C1259       C  0.78877570  0.64422887  0.77211208    -0.16900
C1260       C  0.76812235  0.65454979  0.78354430    -0.14900
H1261       H  0.71371970  0.65865415  0.78166186     0.20500
H1262       H  0.69611252  0.55534606  0.70048726     0.16600
H1263       H  0.63464517  0.53762602  0.67249279     0.19100
H1264       H  0.77682460  0.67837045  0.80253546     0.12400
C1265       C  0.88839842  0.60188612  0.96620637     0.16300
C1266       C  0.86288475  0.60662068  0.96249846    -0.32700
C1267       C  0.86692475  0.62951675  0.92374379     0.20700
C1268       C  0.89523392  0.64735303  0.89053311     0.02900
C1269       C  0.92062445  0.64218297  0.89349206    -0.22500
C1270       C  0.91637779  0.61883849  0.93191787     0.12100
S1271       S  0.88823041  0.57561991  0.01136686    -0.06100
C1272       C  0.92587722  0.58677323  0.98314056    -0.09600
C1273       C  0.93787334  0.60990301  0.94104789    -0.26200
S1274       S  0.89541871  0.67479620  0.84773676    -0.03400
C1275       C  0.85533388  0.66046841  0.87234595    -0.16900
C1276       C  0.84446066  0.63691795  0.91411371    -0.14900
H1277       H  0.84076446  0.59299856  0.98873556     0.20500
H1278       H  0.94265322  0.65571816  0.86709961     0.16600
H1279       H  0.96112470  0.61976887  0.91868715     0.19100
H1280       H  0.82117653  0.62525142  0.93712494     0.12400
C1281       C  0.86951211  0.76761680  0.88199661     0.16300
C1282       C  0.87186614  0.79711747  0.89265074    -0.32700
C1283       C  0.89926901  0.82237356  0.92380409     0.20700
C1284       C  0.92407008  0.81909255  0.94159857     0.02900
C1285       C  0.92160856  0.78946754  0.93092371    -0.22500
C1286       C  0.89331474  0.76354190  0.90160919     0.12100
S1287       S  0.83669297  0.73314929  0.84902029    -0.06100
C1288       C  0.85396841  0.71138318  0.86340658    -0.09600
C1289       C  0.88458174  0.73158449  0.89172722    -0.26200
S1290       S  0.95544679  0.85274895  0.97859263    -0.03400
C1291       C  0.93406044  0.87062448  0.97164397    -0.16900
C1292       C  0.90464141  0.85177221  0.94146679    -0.14900
H1293       H  0.85253234  0.79973265  0.87882647     0.20500
H1294       H  0.94028421  0.78630730  0.94625798     0.16600
H1295       H  0.89912997  0.72330927  0.90732626     0.19100
H1296       H  0.88817379  0.85921831  0.93290262     0.12400
C1297       C  0.68795634  0.57940402  0.94826109     0.16300
C1298       C  0.71227091  0.58082153  0.91531447    -0.32700
C1299       C  0.74565956  0.61169083  0.91390866     0.20700
C1300       C  0.75428972  0.63918127  0.94505971     0.02900
C1301       C  0.73038418  0.63760061  0.97869204    -0.22500
C1302       C  0.69692154  0.60733018  0.97891783     0.12100
S1303       S  0.64556476  0.54556367  0.95273337    -0.06100
C1304       C  0.63982060  0.56957620  0.99562106    -0.09600
C1305       C  0.66954047  0.60192628  0.00607993    -0.26200
S1306       S  0.79488717  0.67467512  0.93606720    -0.03400
C1307       C  0.80050769  0.65424695  0.88481571    -0.16900
C1308       C  0.77242652  0.61951470  0.88140976    -0.14900
H1309       H  0.70513376  0.55934517  0.89036791     0.20500
H1310       H  0.73728501  0.65955907  0.00213455     0.16600
H1311       H  0.67093348  0.62079059  0.03126861     0.19100
H1312       H  0.77102522  0.60124478  0.85485336     0.12400
loop_ 
_geom_bond_atom_site_label_1 
_geom_bond_atom_site_label_2 
_geom_bond_distance 
_geom_bond_site_symmetry_2 
_ccdc_geom_bond_type 
C1            C2   1.672       .  S
C1          C291   1.567       .  S
C1          C304   1.557       .  S
C1          C323   1.572       .  S
C2          C240   1.556       .  S
C2          C259   1.571       .  S
C2          C275   1.558       .  S
C3            C4   1.688       .  S
C3          C195   1.566       .  S
C3          C208   1.579       .  S
C3          C224   1.563       .  S
C4          C144   1.579       .  S
C4          C163   1.565       .  S
C4          C179   1.590       .  S
Zr5           O6   2.438       .  S
Zr5           O7   2.430       .  S
Zr5           O8   2.456       .  S
Zr5          O11   2.467   1_545  S
Zr5          O13   2.384       .  S
Zr5          O14   2.388       .  S
Zr5         O671   2.416       .  S
Zr5         O344   2.396   1_545  S
O6           H62   0.990       .  S
O6           H70   0.990       .  S
O7           C27   1.284       .  A
O8          C685   1.289       .  A
O9          Zr19   2.430       .  S
O9           C28   1.285       .  A
O10         Zr18   2.407       .  S
O10          C29   1.281       .  A
O11         C356   1.291       .  A
O12         Zr20   2.448       .  S
O12          C27   1.286   1_556  A
O13         Zr20   2.360   1_554  S
O13        Zr674   2.395       .  S
O14         Zr20   2.378   1_554  S
O14        Zr347   2.388   1_545  S
O14         H377   0.965       .  S
O15         Zr18   2.406       .  S
O15        Zr661   2.419   1_455  S
O15        Zr691   2.403   1_445  S
O15          H52   0.963       .  S
O16         Zr19   2.391       .  S
O16        Zr333   2.399       .  S
O16        Zr363   2.392       .  S
Zr17         O42   2.441   1_554  S
Zr17         O36   2.465       .  S
Zr17        O700   2.418   1_454  S
Zr17        O360   2.432       .  S
Zr17        O679   2.414   1_454  S
Zr17        O352   2.410   1_554  S
Zr17        O353   2.376       .  S
Zr17        O682   2.382   1_455  S
Zr18         O37   2.434       .  S
Zr18         O30   2.436       .  S
Zr18         O31   2.451       .  S
Zr18         O24   2.382   1_554  S
Zr18         O25   2.384       .  S
Zr18        O669   2.401       .  S
Zr19         O21   2.435       .  S
Zr19         O43   2.440   1_554  S
Zr19         O45   2.435       .  S
Zr19         O23   2.387   1_554  S
Zr19         O26   2.389       .  S
Zr19        O342   2.386       .  S
Zr20         O47   2.435       .  S
Zr20        O374   2.436       .  S
Zr20        O678   2.438       .  S
Zr20        O351   2.403   1_545  S
Zr20        O680   2.406       .  S
O21          H58   0.990       .  S
O22        Zr676   2.436   1_455  S
O22          H67   0.990       .  S
O22         H709   0.990       .  S
O23        Zr673   2.415   1_556  S
O23        Zr348   2.406       .  S
O24        Zr345   2.409   1_546  S
O24        Zr676   2.406   1_455  S
O24          H50   0.966       .  S
O25        Zr345   2.374   1_545  S
O25        Zr691   2.383   1_445  S
O26        Zr673   2.379       .  S
O26        Zr363   2.378       .  S
O26          H51   0.966       .  S
C27         C288   1.477   1_554  S
C28         O339   1.290       .  A
C28         C211   1.488       .  S
C29         O664   1.288       .  A
C29         C192   1.474       .  S
O30          H66   0.990   1_554  S
O31          C33   1.288       .  A
O32        Zr345   2.430   1_545  S
O32          C33   1.283       .  A
C33         C320   1.484   1_554  S
O34         Zr35   2.435       .  S
O34          H63   0.990   1_565  S
Zr35        O694   2.435   1_565  S
Zr35        O367   2.439       .  S
Zr35       O1024   2.421       .  S
Zr35        O671   2.400   1_565  S
Zr35        O344   2.388       .  S
Zr35        O681   2.380   1_565  S
Zr35        O354   2.377       .  S
O36          C41   1.290       .  A
O37          H54   0.990       .  S
O37          H69   0.990       .  S
O38        Zr691   2.436   1_445  S
O38          H55   0.990       .  S
O39        Zr363   2.436       .  S
O39          H59   0.990       .  S
O39          H68   0.990       .  S
O40       Zr1019   2.419   1_455  S
O40          C41   1.281       .  A
C41         C227   1.483       .  S
O42         H717   0.990       .  S
O42         H393   0.990       .  S
O43          H57   0.990       .  S
O43          H64   0.990   1_556  S
O44        Zr673   2.407   1_556  S
O44          C48   1.278       .  A
O45          C48   1.285   1_554  A
O46        Zr348   2.436       .  S
O46         H384   0.990       .  S
O47         H716   0.990       .  S
C48         C307   1.460       .  S
H49         O342   0.966       .  S
H53         O678   0.990       .  S
H56         O374   0.990       .  S
H60         O703   0.990       .  S
H61         O698   0.990       .  S
H65         O370   0.990       .  S
Zr71         O72   2.441       .  S
Zr71         O73   2.442       .  S
Zr71        O730   2.467   1_455  S
Zr71        O405   2.439       .  S
Zr71        O735   2.378   1_455  S
Zr71        O408   2.388       .  S
Zr71        O737   2.407   1_455  S
Zr71        O410   2.412       .  S
O72         H128   0.990       .  S
O72         H792   0.990       .  S
O73          C93   1.285       .  A
O74        Zr727   2.466       .  S
O74          C95   1.288       .  A
O75         Zr85   2.422       .  S
O75          C94   1.283       .  A
O76         Zr84   2.422       .  S
O76          C95   1.282       .  A
O77        Zr399   2.447   1_545  S
O77          C94   1.288       .  A
O78       Zr1070   2.422       .  S
O78          C93   1.281       .  A
O79         Zr84   2.391       .  S
O79        Zr727   2.378       .  S
O79        Zr414   2.382       .  S
O80         Zr85   2.394       .  S
O80        Zr399   2.391   1_545  S
O80        Zr742   2.379       .  S
O80         H115   0.966       .  S
O81         Zr84   2.400       .  S
O81        Zr727   2.411       .  S
O81        Zr429   2.390       .  S
O81         H118   0.966       .  S
O82         Zr85   2.391       .  S
O82        Zr399   2.406   1_545  S
O82        Zr757   2.394   1_455  S
Zr83        O108   2.440       .  S
Zr83        O102   2.428       .  S
Zr83        O110   2.461       .  S
Zr83         O98   2.447   1_545  S
Zr83         O91   2.387   1_545  S
Zr83         O92   2.385       .  S
Zr83        O745   2.402       .  S
Zr83        O418   2.408   1_545  S
Zr84        O103   2.438       .  S
Zr84         O96   2.434       .  S
Zr84         O97   2.419       .  S
Zr84         O90   2.391       .  S
Zr84        O419   2.392       .  S
Zr85         O87   2.436       .  S
Zr85        O109   2.436       .  S
Zr85        O111   2.426       .  S
Zr85         O89   2.391       .  S
Zr85        O748   2.391   1_455  S
Zr86        O113   2.436       .  S
Zr86        O768   2.437       .  S
Zr86        O416   2.438   1_545  S
Zr86       O1062   2.436   1_545  S
Zr86        O407   2.381   1_545  S
Zr86        O736   2.374       .  S
Zr86        O745   2.394       .  S
Zr86        O418   2.398   1_545  S
O87         H124   0.990       .  S
O88        Zr414   2.437       .  S
O88         H119   0.990       .  S
O88         H133   0.990       .  S
O89        Zr739   2.406   1_455  S
O89        Zr742   2.402       .  S
O90        Zr411   2.409       .  S
O90        Zr414   2.395       .  S
O90         H116   0.968       .  S
O91        Zr101   2.379   1_565  S
O91        Zr412   2.392       .  S
O92        Zr101   2.385       .  S
O92        Zr741   2.386       .  S
O92         H773   0.966       .  S
C93         C160   1.477       .  S
C94         C272   1.474       .  S
C95         C256   1.483       .  S
O96         H132   0.990       .  S
O97          C99   1.283       .  A
O98         C427   1.286       .  A
C99         O426   1.284       .  A
C99         C147   1.465       .  S
O100       Zr101   2.436   1_565  S
O100        H129   0.990       .  S
Zr101       O432   2.434   1_545  S
Zr101       O761   2.439       .  S
Zr101       O106   2.422       .  S
Zr101       O409   2.392   1_545  S
Zr101       O738   2.390       .  S
O102        C107   1.284       .  A
O103        H120   0.990       .  S
O103        H135   0.990       .  S
O104       Zr429   2.438       .  S
O104        H449   0.990       .  S
O105       Zr757   2.439       .  S
O105        H134   0.990   1_655  S
O105        H781   0.990       .  S
O106        C107   1.281       .  A
C107        C243   1.467       .  S
O108        H127   0.990       .  S
O108        H131   0.990       .  S
O109        H123   0.990       .  S
O109        H130   0.990       .  S
O110        C770   1.288       .  A
O111        C114   1.283       .  A
O112       Zr742   2.438       .  S
O112        H122   0.990       .  S
O113        H126   0.990       .  S
C114        O766   1.287   1_455  A
C114        C176   1.482       .  S
H117        O748   0.966       .  S
H121        O432   0.990       .  S
H125        O761   0.990       .  S
H136        O728   0.990       .  S
C137        S143   1.704       .  A
C137        C142   1.376       .  A
C137        C138   1.406       .  A
C138        C139   1.407       .  A
C138        H149   1.083       .  S
C139        C148   1.373       .  A
C139        C140   1.387       .  A
C140        S146   1.697       .  A
C140        C141   1.393       .  A
C141        C142   1.395       .  A
C141        H150   1.083       .  S
C142        C145   1.358       .  A
S143        C144   1.752       .  A
C144        C145   1.396       .  A
C145        H151   1.073       .  S
S146        C147   1.718       .  A
C147        C148   1.389       .  A
C148        H152   1.083       .  S
C153        S159   1.711       .  A
C153        C158   1.387       .  A
C153        C154   1.406       .  A
C154        C155   1.405       .  A
C154        H165   1.083       .  S
C155        C164   1.374       .  A
C155        C156   1.379       .  A
C156        S162   1.694       .  A
C156        C157   1.400       .  A
C157        C158   1.400       .  A
C157        H166   1.083       .  S
C158        C161   1.370       .  A
S159        C160   1.727       .  A
C160        C161   1.386       .  A
C161        H167   1.083       .  S
S162        C163   1.745       .  A
C163        C164   1.403       .  A
C164        H168   1.081       .  S
C169        S175   1.720       .  A
C169        C174   1.385       .  A
C169        C170   1.412       .  A
C170        C171   1.412       .  A
C170        H181   1.082       .  S
C171        C180   1.383       .  A
C171        C172   1.377       .  A
C172        S178   1.693       .  A
C172        C173   1.400       .  A
C173        C174   1.400       .  A
C173        H182   1.083       .  S
C174        C177   1.370       .  A
S175        C176   1.729       .  A
C176        C177   1.387       .  A
C177        H183   1.083       .  S
S178        C179   1.740       .  A
C179        C180   1.414       .  A
C180        H184   1.080       .  S
C185        S191   1.699       .  A
C185        C190   1.387       .  A
C185        C186   1.397       .  A
C186        C187   1.398       .  A
C186        H197   1.083       .  S
C187        C196   1.365       .  A
C187        C188   1.377       .  A
C188        S194   1.701       .  A
C188        C189   1.406       .  A
C189        C190   1.407       .  A
C189        H198   1.083       .  S
C190        C193   1.377       .  A
S191        C192   1.723       .  A
C192        C193   1.390       .  A
C193        H199   1.083       .  S
S194        C195   1.743       .  A
C195        C196   1.400       .  A
C196        H200   1.079       .  S
C201        S207   1.716       .  A
C201        C206   1.380       .  A
C201        C202   1.413       .  A
C202        C203   1.413       .  A
C202        H213   1.083       .  S
C203        C212   1.386       .  A
C203        C204   1.386       .  A
C204        S210   1.703       .  A
C204        C205   1.401       .  A
C205        C206   1.401       .  A
C205        H214   1.083       .  S
C206        C209   1.370       .  A
S207        C208   1.748       .  A
C208        C209   1.400       .  A
C209        H215   1.082       .  S
S210        C211   1.725       .  A
C211        C212   1.396       .  A
C212        H216   1.083       .  S
C217        S223   1.697       .  A
C217        C222   1.381       .  A
C217        C218   1.404       .  A
C218        C219   1.402       .  A
C218        H229   1.083       .  S
C219        C228   1.379       .  A
C219        C220   1.387       .  A
C220        S226   1.709       .  A
C220        C221   1.410       .  A
C221        C222   1.408       .  A
C221        H230   1.083       .  S
C222        C225   1.383       .  A
S223        C224   1.742       .  A
C224        C225   1.404       .  A
C225        H231   1.082       .  S
S226        C227   1.730       .  A
C227        C228   1.388       .  A
C228        H232   1.083       .  S
C233        S239   1.688       .  A
C233        C238   1.383       .  A
C233        C234   1.394       .  A
C234        C235   1.394       .  A
C234        H245   1.083       .  S
C235        C244   1.363       .  A
C235        C236   1.387       .  A
C236        S242   1.711       .  A
C236        C237   1.407       .  A
C237        C238   1.406       .  A
C237        H246   1.083       .  S
C238        C241   1.375       .  A
S239        C240   1.739       .  A
C240        C241   1.401       .  A
C241        H247   1.081       .  S
S242        C243   1.727       .  A
C243        C244   1.381       .  A
C244        H248   1.084       .  S
C249        S255   1.717       .  A
C249        C254   1.385       .  A
C249        C250   1.408       .  A
C250        C251   1.409       .  A
C250        H261   1.083       .  S
C251        C260   1.376       .  A
C251        C252   1.382       .  A
C252        S258   1.701       .  A
C252        C253   1.399       .  A
C253        C254   1.401       .  A
C253        H262   1.083       .  S
C254        C257   1.368       .  A
S255        C256   1.728       .  A
C256        C257   1.388       .  A
C257        H263   1.083       .  S
S258        C259   1.739       .  A
C259        C260   1.405       .  A
C260        H264   1.081       .  S
C265        S271   1.707       .  A
C265        C270   1.387       .  A
C265        C266   1.404       .  A
C266        C267   1.403       .  A
C266        H277   1.083       .  S
C267        C276   1.373       .  A
C267        C268   1.382       .  A
C268        S274   1.699       .  A
C268        C269   1.402       .  A
C269        C270   1.401       .  A
C269        H278   1.083       .  S
C270        C273   1.373       .  A
S271        C272   1.726       .  A
C272        C273   1.386       .  A
C273        H279   1.083       .  S
S274        C275   1.740       .  A
C275        C276   1.399       .  A
C276        H280   1.080       .  S
C281        S287   1.707   1_556  A
C281        C286   1.387       .  A
C281        C282   1.401       .  A
C282        C283   1.403       .  A
C282        H293   1.083       .  S
C283        C292   1.369       .  A
C283        C284   1.381       .  A
C284        S290   1.709       .  A
C284        C285   1.406       .  A
C285        C286   1.408       .  A
C285        H294   1.083       .  S
C286        C289   1.376       .  A
S287        C288   1.723   1_554  A
C288        C289   1.390       .  A
C289        H295   1.083       .  S
S290        C291   1.747       .  A
C291        C292   1.401       .  A
C292        H296   1.080       .  S
C297        S303   1.693       .  A
C297        C302   1.382       .  A
C297        C298   1.397       .  A
C298        C299   1.398       .  A
C298        H309   1.083       .  S
C299        C308   1.365       .  A
C299        C300   1.388       .  A
C300        S306   1.703       .  A
C300        C301   1.399       .  A
C301        C302   1.400       .  A
C301        H310   1.083       .  S
C302        C305   1.366       .  A
S303        C304   1.744       .  A
C304        C305   1.398       .  A
C305        H311   1.079       .  S
S306        C307   1.721       .  A
C307        C308   1.382       .  A
C308        H312   1.083       .  S
C313        S319   1.716       .  A
C313        C318   1.386       .  A
C313        C314   1.413       .  A
C314        C315   1.411       .  A
C314        H325   1.083       .  S
C315        C324   1.383       .  A
C315        C316   1.381       .  A
C316        S322   1.688       .  A
C316        C317   1.397       .  A
C317        C318   1.396       .  A
C317        H326   1.083       .  S
C318        C321   1.370       .  A
S319        C320   1.732       .  A
C320        C321   1.385       .  A
C321        H327   1.083   1_556  S
S322        C323   1.740       .  A
C323        C324   1.405       .  A
C324        H328   1.081       .  S
C329        C330   1.672       .  S
C329        C619   1.565       .  S
C329        C632   1.552       .  S
C329        C651   1.573       .  S
C330        C568   1.556       .  S
C330        C587   1.570       .  S
C330        C603   1.549       .  S
C331        C332   1.687       .  S
C331        C523   1.568       .  S
C331        C536   1.574       .  S
C331        C552   1.559       .  S
C332        C472   1.583       .  S
C332        C491   1.569       .  S
C332        C507   1.585       .  S
Zr333       O334   2.439       .  S
Zr333       O335   2.434       .  S
Zr333       O336   2.456       .  S
Zr333       O339   2.465       .  S
Zr333       O341   2.387       .  S
Zr333       O342   2.389       .  S
Zr333       O999   2.414       .  S
O334        H390   0.990       .  S
O334        H398   0.990       .  S
O335        C355   1.284   1_554  A
O336       C1013   1.288       .  A
O337       Zr347   2.424       .  S
O337        C356   1.284       .  A
O338       Zr346   2.413       .  S
O338        C357   1.282       .  A
O340       Zr348   2.451       .  S
O340        C355   1.287       .  A
O341      Zr1002   2.397       .  S
O341       Zr348   2.370   1_554  S
O342       Zr348   2.377   1_554  S
O343       Zr989   2.418   1_455  S
O343       Zr346   2.408       .  S
O343      Zr1019   2.393   1_455  S
O343        H380   0.964       .  S
O344       Zr347   2.391       .  S
Zr345       O370   2.440   1_554  S
Zr345       O364   2.461       .  S
Zr345      O1028   2.408   1_455  S
Zr345      O1007   2.416   1_454  S
Zr345      O1010   2.378   1_455  S
Zr346       O365   2.434       .  S
Zr346       O358   2.435       .  S
Zr346       O359   2.457       .  S
Zr346       O997   2.396       .  S
Zr346       O352   2.381   1_554  S
Zr346       O353   2.382       .  S
Zr347       O349   2.438       .  S
Zr347       O371   2.440   1_554  S
Zr347       O373   2.426   1_554  S
Zr347       O351   2.389   1_554  S
Zr347       O354   2.389       .  S
Zr348       O375   2.436       .  S
Zr348      O1006   2.437       .  S
Zr348      O1008   2.405       .  S
O349        H386   0.990       .  S
O350      Zr1004   2.438   1_455  S
O350       H1037   0.990       .  S
O350        H395   0.990       .  S
O351      Zr1001   2.410   1_556  S
O352      Zr1004   2.398   1_455  S
O352        H378   0.965       .  S
O353      Zr1019   2.378   1_455  S
O354      Zr1001   2.377       .  S
O354        H379   0.966       .  S
C355        C616   1.480       .  S
C356        C539   1.486       .  S
C357        O992   1.287   1_455  A
C357        C520   1.467       .  S
O358        H394   0.990       .  S
O359        C361   1.289       .  A
O360        C361   1.284       .  A
C361        C648   1.485   1_554  S
O362       Zr363   2.436       .  S
O362        H391   0.990       .  S
Zr363      O1022   2.435       .  S
Zr363       O696   2.433       .  S
Zr363       O999   2.401       .  S
Zr363      O1009   2.379       .  S
O364        C369   1.289       .  A
O365        H382   0.990       .  S
O365        H397   0.990       .  S
O366      Zr1019   2.435   1_455  S
O366        H383   0.990       .  S
O367        H387   0.990       .  S
O367        H396   0.989       .  S
O368       Zr691   2.430   1_455  S
O368        C369   1.283       .  A
C369        C555   1.483       .  S
O370       H1045   0.990       .  S
O371        H385   0.990       .  S
O371        H392   0.990   1_556  S
O372      Zr1001   2.403   1_556  S
O372        C376   1.277       .  A
O373        C376   1.282       .  A
O375       H1044   0.990       .  S
C376        C635   1.455       .  S
H381       O1006   0.990       .  S
H388       O1031   0.990       .  S
H389       O1026   0.991       .  S
Zr399       O400   2.440       .  S
Zr399       O401   2.441       .  S
Zr399      O1058   2.461   1_455  S
Zr399      O1063   2.383   1_455  S
Zr399      O1065   2.409   1_455  S
O400        H456   0.990       .  S
O400       H1120   0.990       .  S
O401        C421   1.286       .  A
O402      Zr1055   2.454       .  S
O402        C423   1.287       .  A
O403       Zr413   2.416       .  S
O403        C422   1.281       .  A
O404       Zr412   2.431       .  S
O404        C423   1.284       .  A
O405        C422   1.285       .  A
O406       Zr742   2.432   1_565  S
O406        C421   1.283       .  A
O407      Zr1055   2.383       .  S
O407       Zr412   2.389       .  S
O408       Zr413   2.394       .  S
O408      Zr1070   2.372       .  S
O408        H443   0.966       .  S
O409      Zr1055   2.408       .  S
O409       Zr412   2.396       .  S
O409        H446   0.967       .  S
O410       Zr413   2.394       .  S
O410      Zr1085   2.395   1_455  S
Zr411       O436   2.439       .  S
Zr411       O430   2.428       .  S
Zr411       O438   2.452       .  S
Zr411       O426   2.433       .  S
Zr411      O1073   2.402       .  S
Zr411       O419   2.384       .  S
Zr411       O420   2.381       .  S
Zr412       O431   2.439       .  S
Zr412       O424   2.436       .  S
Zr412       O425   2.419       .  S
Zr412       O418   2.388       .  S
Zr413       O415   2.437       .  S
Zr413       O437   2.440       .  S
Zr413       O439   2.432       .  S
Zr413       O417   2.388       .  S
Zr413      O1076   2.387   1_455  S
Zr414      O1096   2.434       .  S
Zr414       O441   2.435       .  S
Zr414       O734   2.421       .  S
Zr414      O1064   2.377       .  S
Zr414      O1073   2.395       .  S
O415        H452   0.990       .  S
O416        H447   0.990       .  S
O416        H461   0.990       .  S
O417      Zr1067   2.401   1_455  S
O417      Zr1070   2.393       .  S
O418        H444   0.967       .  S
O419       Zr429   2.374       .  S
O420      Zr1069   2.384       .  S
O420       Zr429   2.381       .  S
O420       H1101   0.965       .  S
C421        C488   1.479       .  S
C422        C600   1.467       .  S
C423        C584   1.482       .  S
O424        H460   0.990       .  S
O425        C427   1.282       .  A
C427        C475   1.470       .  S
O428       Zr429   2.435       .  S
O428        H457   0.990       .  S
Zr429      O1089   2.438       .  S
Zr429       O434   2.425       .  S
Zr429      O1066   2.396       .  S
O430        C435   1.284       .  A
O431        H448   0.990       .  S
O431        H463   0.990       .  S
O433      Zr1085   2.439       .  S
O433       H1109   0.990       .  S
O433        H462   0.989   1_655  S
O434        C435   1.281       .  A
C435        C571   1.468       .  S
O436        H455   0.990       .  S
O436        H459   0.990       .  S
O437        H451   0.990       .  S
O437        H458   0.990       .  S
O438       C1098   1.286       .  A
O439        C442   1.285       .  A
O440      Zr1070   2.436       .  S
O440        H450   0.990       .  S
O441        H454   0.990       .  S
C442       O1094   1.287   1_455  A
C442        C504   1.482       .  S
H445       O1076   0.966       .  S
H453       O1089   0.990       .  S
H464       O1056   0.990       .  S
C465        S471   1.707       .  A
C465        C470   1.377       .  A
C465        C466   1.408       .  A
C466        C467   1.409       .  A
C466        H477   1.083       .  S
C467        C476   1.378       .  A
C467        C468   1.387       .  A
C468        S474   1.699       .  A
C468        C469   1.396       .  A
C469        C470   1.398       .  A
C469        H478   1.083       .  S
C470        C473   1.363       .  A
S471        C472   1.752       .  A
C472        C473   1.399       .  A
C473        H479   1.075       .  S
S474        C475   1.720       .  A
C475        C476   1.390       .  A
C476        H480   1.083       .  S
C481        S487   1.713       .  A
C481        C486   1.387       .  A
C481        C482   1.409       .  A
C482        C483   1.408       .  A
C482        H493   1.083       .  S
C483        C492   1.378       .  A
C483        C484   1.379       .  A
C484        S490   1.694       .  A
C484        C485   1.400       .  A
C485        C486   1.400       .  A
C485        H494   1.083       .  S
C486        C489   1.372       .  A
S487        C488   1.728       .  A
C488        C489   1.386       .  A
C489        H495   1.083       .  S
S490        C491   1.743       .  A
C491        C492   1.406       .  A
C492        H496   1.081       .  S
C497        S503   1.718       .  A
C497        C502   1.386       .  A
C497        C498   1.410       .  A
C498        C499   1.411       .  A
C498        H509   1.083       .  S
C499        C508   1.381       .  A
C499        C500   1.377       .  A
C500        S506   1.695       .  A
C500        C501   1.401       .  A
C501        C502   1.401       .  A
C501        H510   1.083       .  S
C502        C505   1.370       .  A
S503        C504   1.728       .  A
C504        C505   1.388       .  A
C505        H511   1.083       .  S
S506        C507   1.740       .  A
C507        C508   1.412       .  A
C508        H512   1.081       .  S
C513        S519   1.698       .  A
C513        C518   1.388       .  A
C513        C514   1.396       .  A
C514        C515   1.397       .  A
C514        H525   1.083       .  S
C515        C524   1.363       .  A
C515        C516   1.375       .  A
C516        S522   1.698       .  A
C516        C517   1.405       .  A
C517        C518   1.405       .  A
C517        H526   1.083       .  S
C518        C521   1.374       .  A
S519        C520   1.721       .  A
C520        C521   1.387       .  A
C521        H527   1.083       .  S
S522        C523   1.743       .  A
C523        C524   1.401       .  A
C524        H528   1.080       .  S
C529        S535   1.715       .  A
C529        C534   1.380       .  A
C529        C530   1.411       .  A
C530        C531   1.412       .  A
C530        H541   1.082       .  S
C531        C540   1.384       .  A
C531        C532   1.386       .  A
C532        S538   1.702       .  A
C532        C533   1.400       .  A
C533        C534   1.400       .  A
C533        H542   1.083       .  S
C534        C537   1.368       .  A
S535        C536   1.746       .  A
C536        C537   1.400       .  A
C537        H543   1.082       .  S
S538        C539   1.726       .  A
C539        C540   1.394       .  A
C540        H544   1.083       .  S
C545        S551   1.697       .  A
C545        C550   1.381       .  A
C545        C546   1.403       .  A
C546        C547   1.402       .  A
C546        H557   1.083       .  S
C547        C556   1.377       .  A
C547        C548   1.387       .  A
C548        S554   1.711       .  A
C548        C549   1.409       .  A
C549        C550   1.407       .  A
C549        H558   1.083       .  S
C550        C553   1.380       .  A
S551        C552   1.741       .  A
C552        C553   1.403       .  A
C553        H559   1.082       .  S
S554        C555   1.729       .  A
C555        C556   1.387       .  A
C556        H560   1.083       .  S
C561        S567   1.686       .  A
C561        C566   1.383       .  A
C561        C562   1.393       .  A
C562        C563   1.393       .  A
C562        H573   1.083       .  S
C563        C572   1.362       .  A
C563        C564   1.387       .  A
C564        S570   1.712       .  A
C564        C565   1.407       .  A
C565        C566   1.407       .  A
C565        H574   1.083       .  S
C566        C569   1.375       .  A
S567        C568   1.738       .  A
C568        C569   1.402       .  A
C569        H575   1.082       .  S
S570        C571   1.727       .  A
C571        C572   1.380       .  A
C572        H576   1.084       .  S
C577        S583   1.713       .  A
C577        C582   1.386       .  A
C577        C578   1.407       .  A
C578        C579   1.407       .  A
C578        H589   1.083       .  S
C579        C588   1.376       .  A
C579        C580   1.382       .  A
C580        S586   1.700       .  A
C580        C581   1.401       .  A
C581        C582   1.402       .  A
C581        H590   1.083       .  S
C582        C585   1.371       .  A
S583        C584   1.727       .  A
C584        C585   1.389       .  A
C585        H591   1.083       .  S
S586        C587   1.740       .  A
C587        C588   1.403       .  A
C588        H592   1.082       .  S
C593        S599   1.701       .  A
C593        C598   1.388       .  A
C593        C594   1.400       .  A
C594        C595   1.399       .  A
C594        H605   1.083       .  S
C595        C604   1.367       .  A
C595        C596   1.383       .  A
C596        S602   1.695       .  A
C596        C597   1.399       .  A
C597        C598   1.400       .  A
C597        H606   1.083       .  S
C598        C601   1.370       .  A
S599        C600   1.723       .  A
C600        C601   1.385       .  A
C601        H607   1.083       .  S
S602        C603   1.739       .  A
C603        C604   1.395       .  A
C604        H608   1.080       .  S
C609        S615   1.707   1_556  A
C609        C614   1.386       .  A
C609        C610   1.401       .  A
C610        C611   1.403       .  A
C610        H621   1.083       .  S
C611        C620   1.369       .  A
C611        C612   1.381       .  A
C612        S618   1.709       .  A
C612        C613   1.406       .  A
C613        C614   1.408       .  A
C613        H622   1.083       .  S
C614        C617   1.378       .  A
S615        C616   1.724   1_554  A
C616        C617   1.390       .  A
C617        H623   1.083       .  S
S618        C619   1.746       .  A
C619        C620   1.401       .  A
C620        H624   1.080       .  S
C625        S631   1.694       .  A
C625        C630   1.382       .  A
C625        C626   1.398       .  A
C626        C627   1.399       .  A
C626        H637   1.083       .  S
C627        C636   1.365       .  A
C627        C628   1.388       .  A
C628        S634   1.697       .  A
C628        C629   1.393       .  A
C629        C630   1.396       .  A
C629        H638   1.083       .  S
C630        C633   1.361       .  A
S631        C632   1.745       .  A
C632        C633   1.394       .  A
C633        H639   1.079       .  S
S634        C635   1.718       .  A
C635        C636   1.383       .  A
C636        H640   1.083       .  S
C641        S647   1.712       .  A
C641        C646   1.386       .  A
C641        C642   1.410       .  A
C642        C643   1.408       .  A
C642        H653   1.083       .  S
C643        C652   1.381       .  A
C643        C644   1.381       .  A
C644        S650   1.692       .  A
C644        C645   1.401       .  A
C645        C646   1.400       .  A
C645        H654   1.083       .  S
C646        C649   1.374       .  A
S647        C648   1.730       .  A
C648        C649   1.388       .  A
C649        H655   1.083   1_556  S
S650        C651   1.744       .  A
C651        C652   1.402       .  A
C652        H656   1.081       .  S
C657        C658   1.672       .  S
C657        C947   1.567       .  S
C657        C960   1.553       .  S
C657        C979   1.577       .  S
C658        C896   1.557       .  S
C658        C915   1.574       .  S
C658        C931   1.551       .  S
C659        C660   1.690       .  S
C659        C851   1.572       .  S
C659        C864   1.576       .  S
C659        C880   1.563       .  S
C660        C800   1.585       .  S
C660        C819   1.572       .  S
C660        C835   1.587       .  S
Zr661       O662   2.441       .  S
Zr661       O663   2.437       .  S
Zr661       O664   2.463   1_655  S
Zr661       O667   2.480   1_545  S
Zr661       O669   2.392   1_655  S
Zr661       O670   2.388       .  S
Zr661      O1000   2.400   1_545  S
O662        H718   0.990       .  S
O662        H726   0.990       .  S
O663        C683   1.284       .  A
O665       Zr675   2.427       .  S
O665        C684   1.285       .  A
O666       Zr674   2.416       .  S
O666        C685   1.282       .  A
O667       C1012   1.293       .  A
O668       Zr676   2.440       .  S
O668        C683   1.284   1_556  A
O669       Zr676   2.369   1_454  S
O670      Zr1003   2.392   1_545  S
O670       Zr676   2.375   1_554  S
O670       H1033   0.965       .  S
O671       Zr674   2.409       .  S
O671        H708   0.964       .  S
O672       Zr989   2.394       .  S
O672       Zr675   2.388       .  S
O672      Zr1019   2.391       .  S
Zr673       O698   2.441   1_554  S
Zr673       O692   2.466       .  S
Zr673      O1016   2.419       .  S
Zr673      O1008   2.407   1_554  S
Zr673      O1009   2.375       .  S
Zr674       O693   2.434       .  S
Zr674       O686   2.436       .  S
Zr674       O687   2.462       .  S
Zr674       O680   2.381   1_554  S
Zr674       O681   2.386       .  S
Zr675       O677   2.434       .  S
Zr675       O699   2.436   1_554  S
Zr675       O701   2.415       .  S
Zr675       O998   2.380       .  S
Zr675       O679   2.385   1_554  S
Zr675       O682   2.388       .  S
Zr676      O1030   2.436   1_545  S
Zr676       O703   2.434       .  S
Zr676      O1007   2.405   1_545  S
O677        H714   0.990       .  S
O678        H723   0.990       .  S
O679      Zr1004   2.408       .  S
O680      Zr1001   2.403   1_546  S
O680        H706   0.968       .  S
O681      Zr1001   2.375   1_545  S
O682      Zr1019   2.379       .  S
O682        H707   0.967       .  S
C683        C944   1.477   1_554  S
C684        O995   1.292       .  A
C684        C867   1.492       .  S
C685        C848   1.473       .  S
O686        H722   0.990       .  S
O687        C689   1.291       .  A
O688      Zr1001   2.419   1_545  S
O688        C689   1.281       .  A
C689        C976   1.484       .  S
O690       Zr691   2.439   1_545  S
O690        H719   0.989       .  S
Zr691      O1023   2.436       .  S
Zr691      O1000   2.391       .  S
Zr691      O1010   2.375       .  S
O692        C697   1.290       .  A
O693        H710   0.990       .  S
O693        H725   0.990       .  S
O694        H711   0.990       .  S
O695      Zr1019   2.437       .  S
O695        H715   0.990       .  S
O695        H724   0.990       .  S
O696        C697   1.283       .  A
C697        C883   1.488       .  S
O698       H1049   0.990       .  S
O699        H713   0.990       .  S
O699        H720   0.990       .  S
O700        C704   1.280       .  A
O701        C704   1.281   1_554  A
O702      Zr1004   2.435       .  S
O702       H1040   0.990       .  S
C704        C963   1.458       .  S
H705        O998   0.966       .  S
H712       O1030   0.990   1_545  S
H721       O1026   0.990       .  S
Zr727       O728   2.443       .  S
Zr727       O729   2.449       .  S
Zr727      O1061   2.437       .  S
Zr727      O1064   2.390       .  S
Zr727      O1066   2.411       .  S
O728        H784   0.990       .  S
O729        C749   1.287       .  A
O730        C751   1.289       .  A
O731       Zr741   2.418       .  S
O731        C750   1.282       .  A
O732       Zr740   2.429       .  S
O732        C751   1.284       .  A
O733      Zr1055   2.438   1_545  S
O733        C750   1.286       .  A
O734        C749   1.280       .  A
O735       Zr740   2.397       .  S
O735      Zr1070   2.385   1_655  S
O736      Zr1055   2.390   1_545  S
O736       Zr741   2.393       .  S
O736        H771   0.967       .  S
O737       Zr740   2.396       .  S
O737      Zr1085   2.392       .  S
O737        H774   0.966       .  S
O738      Zr1055   2.404   1_545  S
O738       Zr741   2.390       .  S
Zr739       O764   2.440       .  S
Zr739       O758   2.431       .  S
Zr739       O766   2.461       .  S
Zr739       O754   2.440   1_545  S
Zr739      O1074   2.409   1_545  S
Zr739       O747   2.386   1_545  S
Zr739       O748   2.380       .  S
Zr740       O759   2.436       .  S
Zr740       O752   2.435       .  S
Zr740       O753   2.425       .  S
Zr740       O746   2.398       .  S
Zr740      O1075   2.388       .  S
Zr741       O743   2.435       .  S
Zr741       O765   2.437       .  S
Zr741       O767   2.439       .  S
Zr741       O745   2.383       .  S
Zr742       O769   2.435   1_455  S
Zr742      O1072   2.441   1_445  S
Zr742      O1063   2.380   1_445  S
Zr742      O1074   2.393   1_445  S
O743        H780   0.990       .  S
O744      Zr1070   2.437   1_655  S
O744        H775   0.990       .  S
O744        H789   0.990       .  S
O746      Zr1067   2.406       .  S
O746      Zr1070   2.396   1_655  S
O746        H772   0.967       .  S
O747      Zr1068   2.397       .  S
O747       Zr757   2.376   1_565  S
O748       Zr757   2.383       .  S
C749        C816   1.480       .  S
C750        C928   1.467       .  S
C751        C912   1.486       .  S
O752        H788   0.990       .  S
O753        C755   1.284       .  A
O754       C1083   1.285       .  A
C755       O1082   1.286       .  A
C755        C803   1.473       .  S
O756       Zr757   2.434   1_565  S
O756        H785   0.990   1_665  S
Zr757      O1088   2.434   1_545  S
Zr757       O762   2.423       .  S
Zr757      O1065   2.393   1_545  S
O758        C763   1.284       .  A
O759        H776   0.990       .  S
O759        H791   0.990       .  S
O760      Zr1085   2.435       .  S
O760       H1105   0.990       .  S
O761        H790   0.990       .  S
O762        C763   1.281       .  A
C763        C899   1.472       .  S
O764        H783   0.990       .  S
O764        H787   0.990       .  S
O765        H779   0.990       .  S
O765        H786   0.990       .  S
O767        C770   1.286       .  A
O768        H778   0.990       .  S
O769        H782   0.990       .  S
C770        C832   1.486       .  S
H777       O1088   0.989       .  S
C793        S799   1.706       .  A
C793        C798   1.376       .  A
C793        C794   1.408       .  A
C794        C795   1.409       .  A
C794        H805   1.083       .  S
C795        C804   1.377       .  A
C795        C796   1.387       .  A
C796        S802   1.701       .  A
C796        C797   1.397       .  A
C797        C798   1.399       .  A
C797        H806   1.083       .  S
C798        C801   1.363       .  A
S799        C800   1.752       .  A
C800        C801   1.400       .  A
C801        H807   1.074       .  S
S802        C803   1.721       .  A
C803        C804   1.390       .  A
C804        H808   1.083       .  S
C809        S815   1.715       .  A
C809        C814   1.386       .  A
C809        C810   1.411       .  A
C810        C811   1.410       .  A
C810        H821   1.083       .  S
C811        C820   1.380       .  A
C811        C812   1.379       .  A
C812        S818   1.693       .  A
C812        C813   1.399       .  A
C813        C814   1.399       .  A
C813        H822   1.083       .  S
C814        C817   1.370       .  A
S815        C816   1.730       .  A
C816        C817   1.385       .  A
C817        H823   1.083       .  S
S818        C819   1.743       .  A
C819        C820   1.409       .  A
C820        H824   1.081       .  S
C825        S831   1.720       .  A
C825        C830   1.385       .  A
C825        C826   1.413       .  A
C826        C827   1.413       .  A
C826        H837   1.083       .  S
C827        C836   1.384       .  A
C827        C828   1.377       .  A
C828        S834   1.694       .  A
C828        C829   1.401       .  A
C829        C830   1.401       .  A
C829        H838   1.083       .  S
C830        C833   1.373       .  A
S831        C832   1.730       .  A
C832        C833   1.388       .  A
C833        H839   1.083       .  S
S834        C835   1.740       .  A
C835        C836   1.414       .  A
C836        H840   1.080       .  S
C841        S847   1.703       .  A
C841        C846   1.387       .  A
C841        C842   1.402       .  A
C842        C843   1.402       .  A
C842        H853   1.083       .  S
C843        C852   1.370       .  A
C843        C844   1.376       .  A
C844        S850   1.700       .  A
C844        C845   1.405       .  A
C845        C846   1.405       .  A
C845        H854   1.083       .  S
C846        C849   1.376       .  A
S847        C848   1.725       .  A
C848        C849   1.387       .  A
C849        H855   1.083       .  S
S850        C851   1.741       .  A
C851        C852   1.405       .  A
C852        H856   1.080       .  S
C857        S863   1.715       .  A
C857        C862   1.380       .  A
C857        C858   1.412       .  A
C858        C859   1.412       .  A
C858        H869   1.082       .  S
C859        C868   1.386       .  A
C859        C860   1.386       .  A
C860        S866   1.706       .  A
C860        C861   1.403       .  A
C861        C862   1.403       .  A
C861        H870   1.083       .  S
C862        C865   1.372       .  A
S863        C864   1.747       .  A
C864        C865   1.402       .  A
C865        H871   1.082       .  S
S866        C867   1.728       .  A
C867        C868   1.395       .  A
C868        H872   1.082       .  S
C873        S879   1.699       .  A
C873        C878   1.382       .  A
C873        C874   1.405       .  A
C874        C875   1.403       .  A
C874        H885   1.083       .  S
C875        C884   1.380       .  A
C875        C876   1.386       .  A
C876        S882   1.713       .  A
C876        C877   1.412       .  A
C877        C878   1.410       .  A
C877        H886   1.083       .  S
C878        C881   1.384       .  A
S879        C880   1.741       .  A
C880        C881   1.404       .  A
C881        H887   1.082       .  S
S882        C883   1.731       .  A
C883        C884   1.389       .  A
C884        H888   1.083       .  S
C889        S895   1.693       .  A
C889        C894   1.382       .  A
C889        C890   1.396       .  A
C890        C891   1.397       .  A
C890        H901   1.083       .  S
C891        C900   1.365       .  A
C891        C892   1.387       .  A
C892        S898   1.711       .  A
C892        C893   1.406       .  A
C893        C894   1.406       .  A
C893        H902   1.083       .  S
C894        C897   1.373       .  A
S895        C896   1.738       .  A
C896        C897   1.401       .  A
C897        H903   1.081       .  S
S898        C899   1.727       .  A
C899        C900   1.383       .  A
C900        H904   1.083       .  S
C905        S911   1.717       .  A
C905        C910   1.385       .  A
C905        C906   1.410       .  A
C906        C907   1.410       .  A
C906        H917   1.083       .  S
C907        C916   1.380       .  A
C907        C908   1.382       .  A
C908        S914   1.703       .  A
C908        C909   1.403       .  A
C909        C910   1.403       .  A
C909        H918   1.083       .  S
C910        C913   1.373       .  A
S911        C912   1.728       .  A
C912        C913   1.391       .  A
C913        H919   1.083       .  S
S914        C915   1.741       .  A
C915        C916   1.405       .  A
C916        H920   1.082       .  S
C921        S927   1.703       .  A
C921        C926   1.388       .  A
C921        C922   1.401       .  A
C922        C923   1.401       .  A
C922        H933   1.083       .  S
C923        C932   1.370       .  A
C923        C924   1.383       .  A
C924        S930   1.694       .  A
C924        C925   1.399       .  A
C925        C926   1.399       .  A
C925        H934   1.083       .  S
C926        C929   1.370       .  A
S927        C928   1.724       .  A
C928        C929   1.384       .  A
C929        H935   1.083       .  S
S930        C931   1.739       .  A
C931        C932   1.396       .  A
C932        H936   1.080       .  S
C937        S943   1.706   1_556  A
C937        C942   1.386       .  A
C937        C938   1.399       .  A
C938        C939   1.401       .  A
C938        H949   1.083       .  S
C939        C948   1.367       .  A
C939        C940   1.381       .  A
C940        S946   1.712       .  A
C940        C941   1.409       .  A
C941        C942   1.410       .  A
C941        H950   1.083       .  S
C942        C945   1.378       .  A
S943        C944   1.721   1_554  A
C944        C945   1.392       .  A
C945        H951   1.083       .  S
S946        C947   1.749       .  A
C947        C948   1.399       .  A
C948        H952   1.080       .  S
C953        S959   1.694       .  A
C953        C958   1.382       .  A
C953        C954   1.397       .  A
C954        C955   1.399       .  A
C954        H965   1.083       .  S
C955        C964   1.363       .  A
C955        C956   1.387       .  A
C956        S962   1.702       .  A
C956        C957   1.396       .  A
C957        C958   1.398       .  A
C957        H966   1.083       .  S
C958        C961   1.362       .  A
S959        C960   1.745       .  A
C960        C961   1.396       .  A
C961        H967   1.079       .  S
S962        C963   1.719       .  A
C963        C964   1.383       .  A
C964        H968   1.083       .  S
C969        S975   1.712       .  A
C969        C974   1.386       .  A
C969        C970   1.412       .  A
C970        C971   1.410       .  A
C970        H981   1.083       .  S
C971        C980   1.385       .  A
C971        C972   1.381       .  A
C972        S978   1.689       .  A
C972        C973   1.400       .  A
C973        C974   1.398       .  A
C973        H982   1.083   1_556  S
C974        C977   1.375   1_556  A
S975        C976   1.732   1_556  A
C976        C977   1.386       .  A
C977        H983   1.083       .  S
S978        C979   1.743       .  A
C979        C980   1.406       .  A
C980        H984   1.081       .  S
C985        C986   1.672       .  S
C985       C1275   1.563       .  S
C985       C1288   1.554       .  S
C985       C1307   1.576       .  S
C986       C1224   1.560       .  S
C986       C1243   1.573       .  S
C986       C1259   1.550       .  S
C987        C988   1.690       .  S
C987       C1179   1.566       .  S
C987       C1192   1.572       .  S
C987       C1208   1.558       .  S
C988       C1128   1.581       .  S
C988       C1147   1.569       .  S
C988       C1163   1.583       .  S
Zr989       O990   2.438       .  S
Zr989       O991   2.431       .  S
Zr989       O992   2.447       .  S
Zr989       O995   2.476       .  S
Zr989       O997   2.391   1_655  S
Zr989       O998   2.385       .  S
O990       H1046   0.990       .  S
O990       H1054   0.990       .  S
O991       C1011   1.284       .  A
O993      Zr1003   2.416       .  S
O993       C1012   1.283       .  A
O994      Zr1002   2.411       .  S
O994       C1013   1.281       .  A
O996      Zr1004   2.438       .  S
O996       C1011   1.284   1_556  A
O997      Zr1004   2.361   1_454  S
O998      Zr1004   2.381   1_554  S
O999      Zr1002   2.406       .  S
O999       H1036   0.964       .  S
O1000     Zr1003   2.396       .  S
Zr1001     O1026   2.442   1_554  S
Zr1001     O1020   2.456       .  S
Zr1002     O1021   2.436       .  S
Zr1002     O1014   2.435       .  S
Zr1002     O1015   2.454       .  S
Zr1002     O1008   2.381   1_554  S
Zr1002     O1009   2.389       .  S
Zr1003     O1005   2.435       .  S
Zr1003     O1027   2.439   1_554  S
Zr1003     O1029   2.434       .  S
Zr1003     O1007   2.387   1_554  S
Zr1003     O1010   2.382       .  S
Zr1004     O1031   2.435   1_655  S
O1005      H1042   0.990       .  S
O1006      H1051   0.990       .  S
O1008      H1034   0.965       .  S
O1010      H1035   0.965       .  S
C1011      C1272   1.472   1_554  S
C1012      C1195   1.490       .  S
C1013      C1176   1.471       .  S
O1014      H1050   0.990       .  S
O1015      C1017   1.289       .  A
O1016      C1017   1.282       .  A
C1017      C1304   1.480   1_554  S
O1018     Zr1019   2.438       .  S
O1018      H1047   0.990       .  S
O1020      C1025   1.288       .  A
O1021      H1038   0.990       .  S
O1021      H1053   0.990       .  S
O1022      H1039   0.990       .  S
O1023      H1043   0.990       .  S
O1023      H1052   0.990       .  S
O1024      C1025   1.281       .  A
C1025      C1211   1.480       .  S
O1027      H1041   0.989       .  S
O1027      H1048   0.990       .  S
O1028      C1032   1.278   1_554  A
O1029      C1032   1.285   1_554  A
C1032      C1291   1.460       .  S
Zr1055     O1056   2.440       .  S
Zr1055     O1057   2.436       .  S
O1056      H1112   0.990       .  S
O1057      C1077   1.285       .  A
O1058      C1079   1.288       .  A
O1059     Zr1069   2.413       .  S
O1059      C1078   1.280       .  A
O1060     Zr1068   2.432       .  S
O1060      C1079   1.285       .  A
O1061      C1078   1.286       .  A
O1062      C1077   1.284       .  A
O1063     Zr1068   2.390       .  S
O1064     Zr1069   2.397       .  S
O1064      H1099   0.966       .  S
O1065     Zr1068   2.396       .  S
O1065      H1102   0.967       .  S
O1066     Zr1069   2.401       .  S
Zr1067     O1092   2.439       .  S
Zr1067     O1086   2.427       .  S
Zr1067     O1094   2.454       .  S
Zr1067     O1082   2.446       .  S
Zr1067     O1075   2.382       .  S
Zr1067     O1076   2.385       .  S
Zr1068     O1087   2.438       .  S
Zr1068     O1080   2.436       .  S
Zr1068     O1081   2.417       .  S
Zr1068     O1074   2.396       .  S
Zr1069     O1071   2.437       .  S
Zr1069     O1093   2.438       .  S
Zr1069     O1095   2.434       .  S
Zr1069     O1073   2.384       .  S
Zr1070     O1097   2.436       .  S
O1071      H1108   0.990       .  S
O1072      H1103   0.990       .  S
O1072      H1117   0.990       .  S
O1074      H1100   0.967       .  S
O1075     Zr1085   2.377       .  S
O1076     Zr1085   2.381       .  S
C1077      C1144   1.480       .  S
C1078      C1256   1.465       .  S
C1079      C1240   1.486       .  S
O1080      H1116   0.990       .  S
O1081      C1083   1.282       .  A
C1083      C1131   1.465       .  S
O1084     Zr1085   2.436       .  S
O1084      H1113   0.990       .  S
Zr1085     O1090   2.429       .  S
O1086      C1091   1.284       .  A
O1087      H1104   0.990       .  S
O1087      H1119   0.990       .  S
O1089      H1118   0.990       .  S
O1090      C1091   1.282       .  A
C1091      C1227   1.471       .  S
O1092      H1111   0.990       .  S
O1092      H1115   0.990       .  S
O1093      H1107   0.989       .  S
O1093      H1114   0.990       .  S
O1095      C1098   1.285       .  A
O1096      H1106   0.989       .  S
O1097      H1110   0.990   1_455  S
C1098      C1160   1.480       .  S
C1121      S1127   1.704       .  A
C1121      C1126   1.376       .  A
C1121      C1122   1.406       .  A
C1122      C1123   1.407       .  A
C1122      H1133   1.083       .  S
C1123      C1132   1.374       .  A
C1123      C1124   1.388       .  A
C1124      S1130   1.698       .  A
C1124      C1125   1.395       .  A
C1125      C1126   1.397       .  A
C1125      H1134   1.083       .  S
C1126      C1129   1.361       .  A
S1127      C1128   1.752       .  A
C1128      C1129   1.399       .  A
C1129      H1135   1.073       .  S
S1130      C1131   1.719       .  A
C1131      C1132   1.388       .  A
C1132      H1136   1.083       .  S
C1137      S1143   1.708       .  A
C1137      C1142   1.387       .  A
C1137      C1138   1.405       .  A
C1138      C1139   1.404       .  A
C1138      H1149   1.083       .  S
C1139      C1148   1.374       .  A
C1139      C1140   1.378       .  A
C1140      S1146   1.698       .  A
C1140      C1141   1.404       .  A
C1141      C1142   1.404       .  A
C1141      H1150   1.083       .  S
C1142      C1145   1.374       .  A
S1143      C1144   1.726       .  A
C1144      C1145   1.389       .  A
C1145      H1151   1.083       .  S
S1146      C1147   1.749       .  A
C1147      C1148   1.403       .  A
C1148      H1152   1.080       .  S
C1153      S1159   1.718       .  A
C1153      C1158   1.386       .  A
C1153      C1154   1.411       .  A
C1154      C1155   1.411       .  A
C1154      H1165   1.083       .  S
C1155      C1164   1.382       .  A
C1155      C1156   1.378       .  A
C1156      S1162   1.693       .  A
C1156      C1157   1.400       .  A
C1157      C1158   1.400       .  A
C1157      H1166   1.083       .  S
C1158      C1161   1.370       .  A
S1159      C1160   1.728       .  A
C1160      C1161   1.387       .  A
C1161      H1167   1.083       .  S
S1162      C1163   1.740       .  A
C1163      C1164   1.412       .  A
C1164      H1168   1.080       .  S
C1169      S1175   1.701       .  A
C1169      C1174   1.388       .  A
C1169      C1170   1.400       .  A
C1170      C1171   1.399       .  A
C1170      H1181   1.083       .  S
C1171      C1180   1.367       .  A
C1171      C1172   1.377       .  A
C1172      S1178   1.698       .  A
C1172      C1173   1.404       .  A
C1173      C1174   1.405       .  A
C1173      H1182   1.083       .  S
C1174      C1177   1.375       .  A
S1175      C1176   1.723       .  A
C1176      C1177   1.387       .  A
C1177      H1183   1.083       .  S
S1178      C1179   1.742       .  A
C1179      C1180   1.402       .  A
C1180      H1184   1.080       .  S
C1185      S1191   1.714       .  A
C1185      C1190   1.381       .  A
C1185      C1186   1.413       .  A
C1186      C1187   1.412       .  A
C1186      H1197   1.082       .  S
C1187      C1196   1.387       .  A
C1187      C1188   1.386       .  A
C1188      S1194   1.701       .  A
C1188      C1189   1.401       .  A
C1189      C1190   1.400       .  A
C1189      H1198   1.083       .  S
C1190      C1193   1.371       .  A
S1191      C1192   1.747       .  A
C1192      C1193   1.399       .  A
C1193      H1199   1.082       .  S
S1194      C1195   1.727       .  A
C1195      C1196   1.395       .  A
C1196      H1200   1.082       .  S
C1201      S1207   1.697       .  A
C1201      C1206   1.382       .  A
C1201      C1202   1.404       .  A
C1202      C1203   1.402       .  A
C1202      H1213   1.083       .  S
C1203      C1212   1.378       .  A
C1203      C1204   1.387       .  A
C1204      S1210   1.707       .  A
C1204      C1205   1.408       .  A
C1205      C1206   1.406       .  A
C1205      H1214   1.083       .  S
C1206      C1209   1.380       .  A
S1207      C1208   1.742       .  A
C1208      C1209   1.402       .  A
C1209      H1215   1.082       .  S
S1210      C1211   1.728       .  A
C1211      C1212   1.388       .  A
C1212      H1216   1.083       .  S
C1217      S1223   1.691       .  A
C1217      C1222   1.383       .  A
C1217      C1218   1.396       .  A
C1218      C1219   1.396       .  A
C1218      H1229   1.083       .  S
C1219      C1228   1.365       .  A
C1219      C1220   1.387       .  A
C1220      S1226   1.713       .  A
C1220      C1221   1.408       .  A
C1221      C1222   1.408       .  A
C1221      H1230   1.083       .  S
C1222      C1225   1.377       .  A
S1223      C1224   1.739       .  A
C1224      C1225   1.402       .  A
C1225      H1231   1.082       .  S
S1226      C1227   1.727       .  A
C1227      C1228   1.382       .  A
C1228      H1232   1.083       .  S
C1233      S1239   1.717       .  A
C1233      C1238   1.385       .  A
C1233      C1234   1.410       .  A
C1234      C1235   1.410       .  A
C1234      H1245   1.083       .  S
C1235      C1244   1.380       .  A
C1235      C1236   1.382       .  A
C1236      S1242   1.699       .  A
C1236      C1237   1.401       .  A
C1237      C1238   1.401       .  A
C1237      H1246   1.083       .  S
C1238      C1241   1.372       .  A
S1239      C1240   1.729       .  A
C1240      C1241   1.389       .  A
C1241      H1247   1.083       .  S
S1242      C1243   1.741       .  A
C1243      C1244   1.405       .  A
C1244      H1248   1.082       .  S
C1249      S1255   1.706       .  A
C1249      C1254   1.387       .  A
C1249      C1250   1.401       .  A
C1250      C1251   1.402       .  A
C1250      H1261   1.083       .  S
C1251      C1260   1.367       .  A
C1251      C1252   1.382       .  A
C1252      S1258   1.696       .  A
C1252      C1253   1.397       .  A
C1253      C1254   1.398       .  A
C1253      H1262   1.083       .  S
C1254      C1257   1.365       .  A
S1255      C1256   1.724       .  A
C1256      C1257   1.382       .  A
C1257      H1263   1.083       .  S
S1258      C1259   1.737       .  A
C1259      C1260   1.397       .  A
C1260      H1264   1.079       .  S
C1265      S1271   1.705   1_556  A
C1265      C1270   1.387       .  A
C1265      C1266   1.398       .  A
C1266      C1267   1.401       .  A
C1266      H1277   1.083       .  S
C1267      C1276   1.365       .  A
C1267      C1268   1.381       .  A
C1268      S1274   1.710       .  A
C1268      C1269   1.406       .  A
C1269      C1270   1.408       .  A
C1269      H1278   1.083       .  S
C1270      C1273   1.375       .  A
S1271      C1272   1.721   1_554  A
C1272      C1273   1.390       .  A
C1273      H1279   1.083       .  S
S1274      C1275   1.745       .  A
C1275      C1276   1.400       .  A
C1276      H1280   1.080       .  S
C1281      S1287   1.691       .  A
C1281      C1286   1.382       .  A
C1281      C1282   1.397       .  A
C1282      C1283   1.397       .  A
C1282      H1293   1.083       .  S
C1283      C1292   1.366       .  A
C1283      C1284   1.388       .  A
C1284      S1290   1.703       .  A
C1284      C1285   1.400       .  A
C1285      C1286   1.401       .  A
C1285      H1294   1.083       .  S
C1286      C1289   1.368       .  A
S1287      C1288   1.743       .  A
C1288      C1289   1.398       .  A
C1289      H1295   1.079       .  S
S1290      C1291   1.722       .  A
C1291      C1292   1.381       .  A
C1292      H1296   1.083       .  S
C1297      S1303   1.709       .  A
C1297      C1302   1.387       .  A
C1297      C1298   1.409       .  A
C1298      C1299   1.407       .  A
C1298      H1309   1.083       .  S
C1299      C1308   1.381       .  A
C1299      C1300   1.381       .  A
C1300      S1306   1.690       .  A
C1300      C1301   1.400       .  A
C1301      C1302   1.398       .  A
C1301      H1310   1.083   1_556  S
C1302      C1305   1.374   1_556  A
S1303      C1304   1.730       .  A
C1304      C1305   1.386   1_556  A
C1305      H1311   1.083       .  S
S1306      C1307   1.744       .  A
C1307      C1308   1.404       .  A
C1308      H1312   1.080       .  S
