geometry optimzed in LAMMPS
_audit_creation_date              2020-11-30 
_audit_creation_method            'lammps2cif' 
_symmetry_space_group_name_H-M    'P1' 
_symmetry_Int_Tables_number       1 
_symmetry_cell_setting            triclinic 
loop_ 
_symmetry_equiv_pos_as_xyz 
  x,y,z 
_cell_length_a                    36.70793961238314 
_cell_length_b                    36.89184976075701 
_cell_length_c                    36.86187681414774 
_cell_angle_alpha                 91.14445122363662 
_cell_angle_beta                  89.53002085338932 
_cell_angle_gamma                 89.1707300342635 
loop_ 
_atom_site_label 
_atom_site_type_symbol 
_atom_site_fract_x 
_atom_site_fract_y 
_atom_site_fract_z 
_atom_site_charge 
O1          O  0.52669112  0.30330555  0.57812165    -0.81250
O2          O  0.44460249  0.27639741  0.46986954    -0.81280
O3          O  0.48986988  0.34858210  0.50404279    -0.81280
O4          O  0.50486725  0.21488344  0.55047821    -0.81230
O5          O  0.45734151  0.31389413  0.46733446    -0.81350
O6          O  0.55784412  0.23977213  0.55935314    -0.81270
O7          O  0.44993134  0.22277957  0.49487006    -0.81250
O8          O  0.50628561  0.34284973  0.54109512    -0.81290
C9          C  0.50810984  0.33139773  0.57304055     1.08440
C10         C  0.42951727  0.24951143  0.48415107     1.08320
C11         C  0.46108129  0.34296212  0.48565804     1.08460
C12         C  0.52934584  0.22615543  0.57263286     1.08340
O13         O  0.57430889  0.27176120  0.48787380    -0.81250
O14         O  0.52510279  0.32107555  0.44208301    -0.81330
O15         O  0.57381674  0.34680532  0.51405984    -0.81270
O16         O  0.50993418  0.22198540  0.43485891    -0.81250
O17         O  0.48629722  0.27286424  0.41283737    -0.81300
O18         O  0.59719701  0.30474558  0.54944395    -0.81260
O19         O  0.56517260  0.21480195  0.49418258    -0.81220
O20         O  0.55646483  0.35290139  0.48260179    -0.81290
Co21       Co  0.55042118  0.28585498  0.53348360     1.51530
Co22       Co  0.49681183  0.27770065  0.46094138     1.51690
Co23       Co  0.53269565  0.31358115  0.50390098     1.51570
Co24       Co  0.50746125  0.22027725  0.49481423     1.51470
O25         O  0.50394898  0.27346079  0.51109898    -1.43190
C26         C  0.58738382  0.24069623  0.48758103     1.08360
C27         C  0.54604176  0.34754188  0.45029740     1.08450
C28         C  0.60091272  0.33391483  0.53207383     1.08390
C29         C  0.49981504  0.24200465  0.40708076     1.08370
O30         O  0.54691613  0.44635690  0.31437295    -0.81250
O31         O  0.43763632  0.53698781  0.26126828    -0.81280
O32         O  0.48447985  0.50640339  0.34707203    -0.81280
O33         O  0.51165298  0.45527775  0.20636001    -0.81230
O34         O  0.46078073  0.55616166  0.32207392    -0.81350
O35         O  0.50841941  0.43951404  0.26122185    -0.81270
O36         O  0.45545022  0.50860359  0.21137748    -0.81250
O37         O  0.50564708  0.47524949  0.34704207    -0.81290
C38         C  0.52685284  0.44816034  0.34250796     1.08440
C39         C  0.43005685  0.51892786  0.23351274     1.08320
C40         C  0.45906432  0.53069006  0.34499020     1.08460
C41         C  0.50707442  0.43025396  0.22919297     1.08340
O42         O  0.58177054  0.45428640  0.24633411    -0.81250
O43         O  0.53306769  0.57472995  0.28925990    -0.81330
O44         O  0.56866139  0.50740537  0.35048675    -0.81270
O45         O  0.51032394  0.57059956  0.22042961    -0.81250
O46         O  0.47167208  0.59883831  0.26048270    -0.81300
O47         O  0.58108212  0.51281311  0.29215866    -0.81260
O48         O  0.57020559  0.50841616  0.22292185    -0.81220
O49         O  0.52574143  0.55663866  0.34313661    -0.81290
Co50       Co  0.54256871  0.47734592  0.27100963     1.51530
Co51       Co  0.48531112  0.55329821  0.27372885     1.51690
Co52       Co  0.52993819  0.51025409  0.31708067     1.51570
Co53       Co  0.51103865  0.51085739  0.21985338     1.51470
O54         O  0.49973715  0.50549237  0.27688103    -1.43190
C55         C  0.59377178  0.48212338  0.23065000     1.08360
C56         C  0.53660010  0.58057885  0.32271412     1.08450
C57         C  0.59180432  0.51119545  0.32512139     1.08390
C58         C  0.49364497  0.60032127  0.23381667     1.08370
O59         O  0.53116384  0.67070810  0.43849059    -0.81250
O60         O  0.56879549  0.78424252  0.49873620    -0.81280
O61         O  0.46849675  0.75739501  0.40692623    -0.81280
O62         O  0.58392616  0.71328851  0.49112286    -0.81230
O63         O  0.51131837  0.79136926  0.43439746    -0.81350
O64         O  0.57093592  0.65484733  0.49024615    -0.81270
O65         O  0.57938726  0.75684020  0.55154512    -0.81250
O66         O  0.53270547  0.72555584  0.42145105    -0.81290
C67         C  0.53848242  0.69266278  0.41444533     1.08440
C68         C  0.59162954  0.77469023  0.52501291     1.08320
C69         C  0.49213020  0.78207147  0.40526669     1.08460
C70         C  0.59438709  0.67981982  0.49161342     1.08340
O71         O  0.50416727  0.66009187  0.51905532    -0.81250
O72         O  0.45244344  0.79587734  0.49387298    -0.81330
O73         O  0.46385916  0.68798364  0.43923120    -0.81270
O74         O  0.50700598  0.74252108  0.56299516    -0.81250
O75         O  0.50403724  0.79798073  0.54957997    -0.81300
O76         O  0.48961036  0.65868853  0.48553850    -0.81260
O77         O  0.54022544  0.69076403  0.55438424    -0.81220
O78         O  0.43901508  0.74345354  0.47007584    -0.81290
Co79       Co  0.53324631  0.69010425  0.48766932     1.51530
Co80       Co  0.50909932  0.78765749  0.49372654     1.51690
Co81       Co  0.48558200  0.73675123  0.44833797     1.51570
Co82       Co  0.54246410  0.73475388  0.52488925     1.51470
O83         O  0.50167465  0.72985138  0.49459915    -1.43190
C84         C  0.51701344  0.66590569  0.55034114     1.08360
C85         C  0.42862605  0.77190241  0.48568480     1.08450
C86         C  0.46452751  0.66197461  0.46158807     1.08390
C87         C  0.49964971  0.77358899  0.57302241     1.08370
O88         O  0.71716629  0.52218747  0.43858661    -0.81250
O89         O  0.78453322  0.57372906  0.56585779    -0.81280
O90         O  0.71610100  0.56995543  0.48415380    -0.81280
O91         O  0.79377216  0.50583849  0.44629233    -0.81230
O92         O  0.72043090  0.57921301  0.54041358    -0.81350
O93         O  0.75776585  0.46364511  0.42015185    -0.81270
O94         O  0.79493518  0.56413163  0.50766435    -0.81250
O95         O  0.66002799  0.53128015  0.45933136    -0.81290
C96         C  0.68289084  0.52767694  0.43277425     1.08440
C97         C  0.79177525  0.58697170  0.53563588     1.08320
C98         C  0.71251195  0.59144077  0.51020271     1.08460
C99         C  0.78142520  0.48808117  0.41712915     1.08340
O100        O  0.75295202  0.43300810  0.48355938    -0.81250
O101        O  0.71869009  0.52898075  0.57791532    -0.81330
O102        O  0.67226472  0.47527306  0.50713774    -0.81270
O103        O  0.80405884  0.49980509  0.56364360    -0.81250
O104        O  0.75010253  0.51592019  0.58469188    -0.81300
O105        O  0.69651057  0.45131960  0.45911098    -0.81260
O106        O  0.80437987  0.44822725  0.50657854    -0.81220
O107        O  0.66949479  0.53433023  0.54221453    -0.81290
Co108      Co  0.74086865  0.47957592  0.46466193     1.51530
Co109      Co  0.75675864  0.53903215  0.53994822     1.51690
Co110      Co  0.69551113  0.52090733  0.49497071     1.51570
Co111      Co  0.79543347  0.50437687  0.50612211     1.51470
O112        O  0.73826449  0.49968609  0.51400831    -1.43190
C113        C  0.78150105  0.42369573  0.49816519     1.08360
C114        C  0.68392970  0.52967172  0.57347364     1.08450
C115        C  0.67696082  0.44817263  0.48674228     1.08390
C116        C  0.78089584  0.50210773  0.59061624     1.08370
O117        O  0.45295010  0.45448742  0.68872128    -0.81250
O118        O  0.57761523  0.53844669  0.74222881    -0.81280
O119        O  0.56769721  0.48109960  0.67578419    -0.81280
O120        O  0.51493235  0.44871937  0.79232984    -0.81230
O121        O  0.57784201  0.53211000  0.70449850    -0.81350
O122        O  0.49007142  0.42874548  0.74201113    -0.81270
O123        O  0.56604700  0.50546589  0.78960054    -0.81250
O124        O  0.50530622  0.45226350  0.65984705    -0.81290
C125        C  0.47447007  0.43954782  0.66622792     1.08440
C126        C  0.58918597  0.52163167  0.76972985     1.08320
C127        C  0.58964479  0.50502114  0.68489126     1.08460
C128        C  0.50730186  0.42236642  0.77007108     1.08340
O129        O  0.42701535  0.45963023  0.75412409    -0.81250
O130        O  0.52666735  0.55731066  0.67396141    -0.81330
O131        O  0.46746822  0.51891277  0.67045488    -0.81270
O132        O  0.50572343  0.56555225  0.78124088    -0.81250
O133        O  0.53295672  0.58795120  0.73245062    -0.81300
O134        O  0.44924786  0.52409080  0.72617694    -0.81260
O135        O  0.44977088  0.50346406  0.78893092    -0.81220
O136        O  0.52558329  0.51648798  0.62847763    -0.81290
Co137      Co  0.47012956  0.47534354  0.73536759     1.51530
Co138      Co  0.52631315  0.54065507  0.72593769     1.51690
Co139      Co  0.51868826  0.49991311  0.67609260     1.51570
Co140      Co  0.50980074  0.50489421  0.78369466     1.51470
O141        O  0.51664346  0.49121018  0.72744297    -1.43190
C142        C  0.42182633  0.48378543  0.77791492     1.08360
C143        C  0.52723921  0.54910068  0.64000731     1.08450
C144        C  0.44419936  0.52997900  0.69353504     1.08390
C145        C  0.51688034  0.59365296  0.76194347     1.08370
O146        O  0.35341832  0.47937146  0.49895329    -0.81250
O147        O  0.22063802  0.50903959  0.44396845    -0.81280
O148        O  0.25470014  0.45189035  0.55257202    -0.81280
O149        O  0.30869006  0.53764037  0.43936291    -0.81230
O150        O  0.22275467  0.45558089  0.50196029    -0.81350
O151        O  0.34950626  0.50872277  0.47305578    -0.81270
O152        O  0.27269393  0.53586444  0.43114541    -0.81250
O153        O  0.31853469  0.44125438  0.52421832    -0.81290
C154        C  0.34744540  0.44687755  0.50753961     1.08440
C155        C  0.24429478  0.51997528  0.42025063     1.08320
C156        C  0.23814024  0.43604565  0.52634519     1.08460
C157        C  0.33966248  0.52147751  0.44251512     1.08340
O158        O  0.35732736  0.54939146  0.53156522    -0.81250
O159        O  0.22009116  0.51232381  0.55849688    -0.81330
O160        O  0.32126773  0.48165496  0.58755197    -0.81270
O161        O  0.26248472  0.59481739  0.46733375    -0.81250
O162        O  0.22100420  0.57061705  0.50345030    -0.81300
O163        O  0.35434429  0.52223538  0.55877922    -0.81260
O164        O  0.32279481  0.57519927  0.48994286    -0.81220
O165        O  0.27426900  0.53106608  0.56258732    -0.81290
Co166      Co  0.31876305  0.51783392  0.51833939     1.51530
Co167      Co  0.22312558  0.51106186  0.50146969     1.51690
Co168      Co  0.29544296  0.48602180  0.54210616     1.51570
Co169      Co  0.27527554  0.54872606  0.48191836     1.51470
O170        O  0.27773133  0.49950794  0.49500310    -1.43190
C171        C  0.35191115  0.57412923  0.50869004     1.08360
C172        C  0.24551912  0.52442841  0.57878555     1.08450
C173        C  0.34676246  0.50502013  0.58806912     1.08390
C174        C  0.23578220  0.59919626  0.48838840     1.08370
O175        O  0.86705281  0.56279968  0.00574451    -0.81250
O176        O  0.72941278  0.52219697  0.05539364    -0.81280
O177        O  0.76731942  0.58445559  0.00358068    -0.81280
O178        O  0.81848731  0.50683509  0.05454618    -0.81230
O179        O  0.71207309  0.57115615  0.99518418    -0.81350
O180        O  0.86354100  0.53818130  0.03148938    -0.81270
O181        O  0.76342421  0.47561008  0.06925368    -0.81250
O182        O  0.83041096  0.59313522  0.96972151    -0.81290
C183        C  0.85993544  0.59077899  0.98730310     1.08440
C184        C  0.74367470  0.50145478  0.08014541     1.08320
C185        C  0.73584077  0.59563528  0.00181369     1.08460
C186        C  0.84926720  0.52119218  0.05786375     1.08340
O187        O  0.85279479  0.48892644  0.98254744    -0.81250
O188        O  0.71573456  0.50439774  0.94343687    -0.81330
O189        O  0.80725455  0.55072041  0.91145352    -0.81270
O190        O  0.77897399  0.44607753  0.00884501    -0.81250
O191        O  0.72166982  0.45604406  0.00067426    -0.81300
O192        O  0.85000195  0.52816335  0.94704590    -0.81260
O193        O  0.81086121  0.45610280  0.00875530    -0.81220
O194        O  0.73569364  0.55766833  0.93432459    -0.81290
Co195      Co  0.82462246  0.53331106  0.99586538     1.51530
Co196      Co  0.72367300  0.51409193  0.99710496     1.51690
Co197      Co  0.78363475  0.56794590  0.95623284     1.51570
Co198      Co  0.77554289  0.49642027  0.02429741     1.51470
O199        O  0.78012778  0.51690669  0.97760748    -1.43190
C200        C  0.84159715  0.45867130  0.99233776     1.08360
C201        C  0.72756523  0.52725937  0.92126295     1.08450
C202        C  0.83872677  0.53696055  0.91563413     1.08390
C203        C  0.74802931  0.43283125  0.00390943     1.08370
O204        O  0.96280590  0.53016483  0.78944337    -0.81250
O205        O  0.04016804  0.59596924  0.76529951    -0.81280
O206        O  0.05859790  0.51934430  0.86420966    -0.81280
O207        O  0.95388918  0.50941818  0.72115251    -0.81230
O208        O  0.05094970  0.56302136  0.82435041    -0.81350
O209        O  0.93312736  0.46955489  0.76149640    -0.81270
O210        O  0.01185120  0.56885635  0.71851994    -0.81250
O211        O  0.99136241  0.51970176  0.83914701    -0.81290
C212        C  0.96344673  0.53174581  0.82323927     1.08440
C213        C  0.02245121  0.59841050  0.73652682     1.08320
C214        C  0.05907390  0.55275937  0.85654465     1.08460
C215        C  0.92682924  0.49204981  0.73697553     1.08340
O216        O  0.99621245  0.43574344  0.75587180    -0.81250
O217        O  0.09230695  0.54333198  0.78590867    -0.81330
O218        O  0.03594001  0.45520572  0.83136859    -0.81270
O219        O  0.06808952  0.50594817  0.70348283    -0.81250
O220        O  0.08514978  0.54598425  0.74471830    -0.81300
O221        O  0.97800719  0.45641438  0.81736217    -0.81260
O222        O  0.01448710  0.45333454  0.70293990    -0.81220
O223        O  0.08826325  0.48832822  0.80430397    -0.81290
Co224      Co  0.98039921  0.48248523  0.77076328     1.51530
Co225      Co  0.03759416  0.54809871  0.77197379     1.51690
Co226      Co  0.04090828  0.50458445  0.81838228     1.51570
Co227      Co  0.01340489  0.50889070  0.71521672     1.51470
O228        O  0.02803726  0.49744916  0.76902425    -1.43190
C229        C  0.00784628  0.42780912  0.72506556     1.08360
C230        C  0.10772015  0.51497862  0.79908986     1.08450
C231        C  0.00497116  0.44202145  0.83300890     1.08390
C232        C  0.09340481  0.52324444  0.71942760     1.08370
O233        O  0.20996979  0.47966260  0.92755829    -0.81250
O234        O  0.25329971  0.58692134  0.02740755    -0.81280
O235        O  0.17200667  0.57665256  0.98425962    -0.81280
O236        O  0.29357395  0.51302503  0.94019457    -0.81230
O237        O  0.19035182  0.57541947  0.04104781    -0.81350
O238        O  0.25068589  0.47330492  0.93032067    -0.81270
O239        O  0.29768010  0.57017929  0.99153178    -0.81250
O240        O  0.19168053  0.53591901  0.92965174    -0.81290
C241        C  0.19672731  0.50760942  0.91156993     1.08440
C242        C  0.27896125  0.59538356  0.00740200     1.08320
C243        C  0.17914629  0.59287352  0.01375923     1.08460
C244        C  0.27610462  0.49279639  0.91785731     1.08340
O245        O  0.23516841  0.42765416  0.97809794    -0.81250
O246        O  0.20766151  0.49682471  0.05552141    -0.81330
O247        O  0.13347570  0.50836315  0.96509996    -0.81270
O248        O  0.28803205  0.51801732  0.05691775    -0.81250
O249        O  0.24337394  0.55086058  0.08485566    -0.81300
O250        O  0.17409041  0.46544830  0.98003033    -0.81260
O251        O  0.28442201  0.45615954  0.00020937    -0.81220
O252        O  0.16103630  0.51818955  0.02825623    -0.81290
Co253      Co  0.22844256  0.47663963  0.98034516     1.51530
Co254      Co  0.23266133  0.54105616  0.03836738     1.51690
Co255      Co  0.18060910  0.52498583  0.97840695     1.51570
Co256      Co  0.28719218  0.51526093  0.99642178     1.51470
O257        O  0.23171656  0.52780398  0.98913684    -1.43190
C258        C  0.26608946  0.42626240  0.99266715     1.08360
C259        C  0.17382757  0.50165565  0.05461829     1.08450
C260        C  0.14079945  0.47591805  0.97482402     1.08390
C261        C  0.27240292  0.53228215  0.08692238     1.08370
O262        O  0.92767650  0.54120404  0.20920895    -0.81250
O263        O  0.06282817  0.43173595  0.26265312    -0.81280
O264        O  0.98000369  0.43296588  0.19926825    -0.81280
O265        O  0.95212082  0.50557161  0.28518048    -0.81230
O266        O  0.03733517  0.42810910  0.20136987    -0.81350
O267        O  0.93446167  0.56133126  0.27163769    -0.81270
O268        O  0.00800043  0.44911269  0.28211305    -0.81250
O269        O  0.93187855  0.48475236  0.19949718    -0.81290
C270        C  0.91507923  0.51388127  0.19437301     1.08440
C271        C  0.03212376  0.42322036  0.27600794     1.08320
C272        C  0.00777584  0.41369005  0.19505526     1.08460
C273        C  0.92610904  0.52993164  0.28210440     1.08340
O274        O  0.99194360  0.57995614  0.23152421    -0.81250
O275        O  0.07068060  0.47862729  0.19571263    -0.81330
O276        O  0.97790638  0.52837738  0.15399854    -0.81270
O277        O  0.06861068  0.50810046  0.28170398    -0.81250
O278        O  0.08088906  0.49112795  0.22638738    -0.81300
O279        O  0.97679535  0.56887415  0.20026592    -0.81260
O280        O  0.01489814  0.56489415  0.28325193    -0.81220
O281        O  0.02926633  0.47627453  0.15123119    -0.81290
Co282      Co  0.96904998  0.53503101  0.24197473     1.51530
Co283      Co  0.03601324  0.46796534  0.23726986     1.51690
Co284      Co  0.98115990  0.48142847  0.17836621     1.51570
Co285      Co  0.01044461  0.50703251  0.27905679     1.51470
O286        O  0.00682874  0.50619314  0.22064605    -1.43190
C287        C  0.00844481  0.58968424  0.25961141     1.08360
C288        C  0.06214776  0.47967926  0.16185414     1.08450
C289        C  0.97749555  0.56084214  0.16586751     1.08390
C290        C  0.09259410  0.50286566  0.25621759     1.08370
O291        O  0.97082399  0.32159573  0.93882837    -0.81250
O292        O  0.08856529  0.28392104  0.02439737    -0.81280
O293        O  0.00754121  0.37896062  0.02784086    -0.81280
O294        O  0.00822530  0.23260078  0.93824815    -0.81230
O295        O  0.05547922  0.34215011  0.02553342    -0.81350
O296        O  0.95768988  0.25831440  0.91665361    -0.81270
O297        O  0.06535475  0.23508649  0.99603330    -0.81250
O298        O  0.01884364  0.33713585  0.96807857    -0.81290
C299        C  0.99803559  0.34095488  0.94183516     1.08440
C300        C  0.09331516  0.25487306  0.00679363     1.08320
C301        C  0.04145191  0.37437970  0.02843682     1.08460
C302        C  0.98771023  0.24213672  0.91060788     1.08340
O303        O  0.92481940  0.26547579  0.97822651    -0.81250
O304        O  0.02986114  0.30440647  0.07083086    -0.81330
O305        O  0.94905388  0.34793053  0.00210951    -0.81270
O306        O  0.00522274  0.21919037  0.05259801    -0.81250
O307        O  0.03971194  0.26574714  0.06689721    -0.81300
O308        O  0.92301373  0.30042510  0.97591046    -0.81260
O309        O  0.94972348  0.21474443  0.99834048    -0.81220
O310        O  0.97516680  0.32726078  0.06430702    -0.81290
Co311      Co  0.97210743  0.27500023  0.96196920     1.51530
Co312      Co  0.03987050  0.28849619  0.01844622     1.51690
Co313      Co  0.99598120  0.33089033  0.01669650     1.51570
Co314      Co  0.00590344  0.22841057  0.99740362     1.51470
O315        O  0.98921702  0.28137775  0.00915848    -1.43190
C316        C  0.92107339  0.23438469  0.99120959     1.08360
C317        C  0.00064742  0.31868479  0.08479370     1.08450
C318        C  0.92099334  0.33239241  0.99074612     1.08390
C319        C  0.02209666  0.23796910  0.07660158     1.08370
O320        O  0.96204024  0.69751797  0.05666884    -0.81250
O321        O  0.08459469  0.76271005  0.97756918    -0.81280
O322        O  0.07881373  0.70499735  0.04203739    -0.81280
O323        O  0.01520651  0.80726388  0.06830939    -0.81230
O324        O  0.08929161  0.72420919  0.98741160    -0.81350
O325        O  0.98746609  0.75830703  0.08677950    -0.81270
O326        O  0.06773422  0.80832344  0.01312473    -0.81250
O327        O  0.01791594  0.67776065  0.06453995    -0.81290
C328        C  0.98447613  0.67638386  0.07111009     1.08440
C329        C  0.09299430  0.79068192  0.99599969     1.08320
C330        C  0.10130882  0.71152817  0.01774249     1.08460
C331        C  0.00599879  0.78575413  0.09384016     1.08340
O332        O  0.92686114  0.75803423  0.04986562    -0.81250
O333        O  0.05008955  0.68882291  0.96058815    -0.81330
O334        O  0.98842471  0.68025531  0.99362829    -0.81270
O335        O  0.01020348  0.79355918  0.95311712    -0.81250
O336        O  0.04239861  0.74720911  0.92738978    -0.81300
O337        O  0.95915416  0.73168968  0.98839387    -0.81260
O338        O  0.95165229  0.79773107  0.01227275    -0.81220
O339        O  0.05239455  0.64828851  0.00397661    -0.81290
Co340      Co  0.97373030  0.74600069  0.03813410     1.51530
Co341      Co  0.03587933  0.74046735  0.97551563     1.51690
Co342      Co  0.03457857  0.69476670  0.01835003     1.51570
Co343      Co  0.01206380  0.79830084  0.01258171     1.51470
O344        O  0.02258871  0.74418138  0.02521866    -1.43190
C345        C  0.92271188  0.78329850  0.02803268     1.08360
C346        C  0.05669196  0.65634827  0.97098683     1.08450
C347        C  0.96216242  0.69844194  0.98114048     1.08390
C348        C  0.02263518  0.77510496  0.92420202     1.08370
O349        O  0.57812007  0.82852129  0.95087086    -0.81250
O350        O  0.50173907  0.77556634  0.06221271    -0.81280
O351        O  0.50751489  0.84357055  0.04856093    -0.81280
O352        O  0.56818150  0.72169869  0.99610996    -0.81230
O353        O  0.45336113  0.82286661  0.04637178    -0.81350
O354        O  0.58739860  0.77032841  0.97129926    -0.81270
O355        O  0.51061128  0.72045481  0.04685805    -0.81250
O356        O  0.56280640  0.84738276  0.00589536    -0.81290
C357        C  0.58597544  0.84473884  0.98091099     1.08440
C358        C  0.50778030  0.74460024  0.07210999     1.08320
C359        C  0.47569797  0.84415270  0.06022082     1.08460
C360        C  0.59419489  0.74234959  0.98771483     1.08340
O361        O  0.55981410  0.76625576  0.90632350    -0.81250
O362        O  0.44759409  0.79243393  0.97389643    -0.81330
O363        O  0.51918141  0.85842708  0.94630410    -0.81270
O364        O  0.45415782  0.72845192  0.98751995    -0.81250
O365        O  0.43473122  0.75626557  0.03752505    -0.81300
O366        O  0.50117591  0.80792085  0.92319798    -0.81260
O367        O  0.51527945  0.73314575  0.93197896    -0.81220
O368        O  0.45794417  0.84907270  0.98667783    -0.81290
Co369      Co  0.54277959  0.78581568  0.94990342     1.51530
Co370      Co  0.47483917  0.78043297  0.01828868     1.51690
Co371      Co  0.51217440  0.84640651  0.99711363     1.51570
Co372      Co  0.51298591  0.73178477  0.99078214     1.51470
O373        O  0.51928020  0.79146446  0.99609162    -1.43190
C374        C  0.53390296  0.74381811  0.90328084     1.08360
C375        C  0.43702813  0.82464919  0.97430846     1.08450
C376        C  0.50203206  0.84183465  0.92235079     1.08390
C377        C  0.42760389  0.73638754  0.01061359     1.08370
O378        O  0.54061881  0.02138983  0.83455269    -0.81250
O379        O  0.51807595  0.06620331  0.69819548    -0.81280
O380        O  0.57944937  0.98785968  0.75715623    -0.81280
O381        O  0.48826451  0.09121468  0.78038650    -0.81230
O382        O  0.56742316  0.00837272  0.70398349    -0.81350
O383        O  0.48481550  0.06038430  0.83169220    -0.81270
O384        O  0.49752457  0.09332346  0.74792747    -0.81250
O385        O  0.55954975  0.96855426  0.81754835    -0.81290
C386        C  0.56323035  0.99620530  0.83699807     1.08440
C387        C  0.51461749  0.09532318  0.71848123     1.08320
C388        C  0.59066651  0.99937061  0.72771574     1.08460
C389        C  0.49159486  0.08942353  0.81494876     1.08340
O390        O  0.44649285  0.00198867  0.78828506    -0.81250
O391        O  0.50859418  0.95102283  0.71764142    -0.81330
O392        O  0.48733833  0.95254581  0.79995169    -0.81270
O393        O  0.43800593  0.06987134  0.71885868    -0.81250
O394        O  0.45259751  0.01147297  0.71201510    -0.81300
O395        O  0.47930258  0.98590779  0.85074503    -0.81260
O396        O  0.43458305  0.05712220  0.78598318    -0.81220
O397        O  0.54405418  0.92729344  0.76108533    -0.81290
Co398      Co  0.49501974  0.01107522  0.81057440     1.51530
Co399      Co  0.51167983  0.01021259  0.71169251     1.51690
Co400      Co  0.53152287  0.97375219  0.77265055     1.51570
Co401      Co  0.47387045  0.04861372  0.74875237     1.51470
O402        O  0.51591308  0.02474459  0.76742276    -1.43190
C403        C  0.42480607  0.02694291  0.79621654     1.08360
C404        C  0.52351161  0.92281477  0.73417770     1.08450
C405        C  0.47753898  0.95553029  0.83397863     1.08390
C406        C  0.42773983  0.03752677  0.71361058     1.08370
O407        O  0.45869530  0.19285839  0.94944469    -0.81250
O408        O  0.52206936  0.25420532  0.06961351    -0.81280
O409        O  0.51194375  0.16900787  0.01904556    -0.81280
O410        O  0.45228285  0.30303911  0.99274747    -0.81230
O411        O  0.55356713  0.19919654  0.05044146    -0.81350
O412        O  0.44117671  0.24707287  0.98199245    -0.81270
O413        O  0.50238729  0.30621425  0.05072101    -0.81250
O414        O  0.48356417  0.16553374  0.99468905    -0.81290
C415        C  0.45764984  0.16792330  0.97228516     1.08440
C416        C  0.50718645  0.28376307  0.07658255     1.08320
C417        C  0.52976138  0.17441700  0.04841698     1.08460
C418        C  0.42930439  0.27764286  0.98979950     1.08340
O419        O  0.46594399  0.25662395  0.91449602    -0.81250
O420        O  0.57888998  0.23585976  0.98118291    -0.81330
O421        O  0.52912338  0.16087634  0.94095430    -0.81270
O422        O  0.56780079  0.29949615  0.00004830    -0.81250
O423        O  0.58883174  0.26745789  0.04720072    -0.81300
O424        O  0.52851422  0.21820446  0.92362104    -0.81260
O425        O  0.51184872  0.29102958  0.93481968    -0.81220
O426        O  0.56993277  0.18014094  0.98750611    -0.81290
Co427      Co  0.48554389  0.23860513  0.95605930     1.51530
Co428      Co  0.54859023  0.24692653  0.02578146     1.51690
Co429      Co  0.52082858  0.19737262  0.97541404     1.51570
Co430      Co  0.50860257  0.29530943  0.99479344     1.51470
O431        O  0.50567878  0.23792736  0.00338545    -1.43190
C432        C  0.49099919  0.27876709  0.90783629     1.08360
C433        C  0.59201987  0.20480667  0.98222640     1.08450
C434        C  0.53387503  0.18399526  0.91647469     1.08390
C435        C  0.59433957  0.29047833  0.02269940     1.08370
O436        O  0.51653337  0.98896566  0.12506410    -0.81250
O437        O  0.45489528  0.01803174  0.27430306    -0.81280
O438        O  0.54632397  0.93319805  0.23122083    -0.81280
O439        O  0.43983051  0.03882183  0.19108125    -0.81230
O440        O  0.51100420  0.95973283  0.27353570    -0.81350
O441        O  0.46707697  0.98811335  0.17941596    -0.81270
O442        O  0.43278795  0.07021325  0.25321961    -0.81250
O443        O  0.52808568  0.95299069  0.17091322    -0.81290
C444        C  0.52115339  0.95756354  0.13725737     1.08440
C445        C  0.42721519  0.04001795  0.26758094     1.08320
C446        C  0.52550170  0.93036624  0.25792063     1.08460
C447        C  0.43898023  0.00763676  0.17704121     1.08340
O448        O  0.49390673  0.05414307  0.14940389    -0.81250
O449        O  0.57141109  0.01757092  0.28083560    -0.81330
O450        O  0.58146360  0.99009418  0.19415928    -0.81270
O451        O  0.49374676  0.09597808  0.23076418    -0.81250
O452        O  0.51696834  0.07601255  0.28219901    -0.81300
O453        O  0.56175063  0.03351333  0.15953322    -0.81260
O454        O  0.48330865  0.09085274  0.19695814    -0.81220
O455        O  0.58357721  0.98646334  0.23067951    -0.81290
Co456      Co  0.51529762  0.01165415  0.17076253     1.51530
Co457      Co  0.51427354  0.01888973  0.27437651     1.51690
Co458      Co  0.53299247  0.97928079  0.21987570     1.51570
Co459      Co  0.47402115  0.04920554  0.23099974     1.51470
O460        O  0.51939419  0.02870260  0.21891992    -1.43190
C461        C  0.48790150  0.08539204  0.16268363     1.08360
C462        C  0.59491411  0.00188262  0.25932488     1.08450
C463        C  0.58791097  0.01533104  0.17141019     1.08390
C464        C  0.50963871  0.10240683  0.26037611     1.08370
O465        O  0.30573892  0.97724272  0.06691708    -0.81250
O466        O  0.27574085  0.08498658  0.98151653    -0.81280
O467        O  0.35249553  0.03458158  0.98324481    -0.81280
O468        O  0.21820269  0.01504827  0.05595741    -0.81230
O469        O  0.30939723  0.07471657  0.96918853    -0.81350
O470        O  0.26990245  0.99188130  0.07480735    -0.81270
O471        O  0.22209573  0.06921588  0.00266376    -0.81250
O472        O  0.35126038  0.98789080  0.02910111    -0.81290
C473        C  0.33930502  0.98343976  0.06134133     1.08440
C474        C  0.24624297  0.09387191  0.99716990     1.08320
C475        C  0.34256264  0.06692422  0.97643931     1.08460
C476        C  0.24030955  0.00804844  0.08207865     1.08340
O477        O  0.24827980  0.93229107  0.04687913    -0.81250
O478        O  0.31018856  0.01970775  0.92603381    -0.81330
O479        O  0.34961145  0.95131451  0.96864281    -0.81270
O480        O  0.22786570  0.00816124  0.94027967    -0.81250
O481        O  0.25183569  0.05898059  0.92107012    -0.81300
O482        O  0.30691108  0.93233996  0.00696371    -0.81260
O483        O  0.22552687  0.95315509  0.99569221    -0.81220
O484        O  0.35050112  0.97770245  0.94257521    -0.81290
Co485      Co  0.27064357  0.97174149  0.02662062     1.51530
Co486      Co  0.27144088  0.03694588  0.96234937     1.51690
Co487      Co  0.31955163  0.99157294  0.98418136     1.51570
Co488      Co  0.22673166  0.01201361  0.99940862     1.51470
O489        O  0.28308529  0.01664322  0.00734593    -1.43190
C490        C  0.23267906  0.92603497  0.01718039     1.08360
C491        C  0.33726582  0.99863871  0.91841866     1.08450
C492        C  0.33426286  0.92564594  0.98578792     1.08390
C493        C  0.23606484  0.02985925  0.91369798     1.08370
O494        O  0.69753706  0.95991154  0.03972668    -0.81250
O495        O  0.73963194  0.03075566  0.92219905    -0.81280
O496        O  0.66465483  0.01816776  0.97150888    -0.81280
O497        O  0.80215586  0.95456268  0.98540624    -0.81230
O498        O  0.70558637  0.03845712  0.93229691    -0.81350
O499        O  0.75187116  0.93778028  0.01044374    -0.81270
O500        O  0.79484068  0.01178637  0.93508162    -0.81250
O501        O  0.66738359  0.99149303  0.99818850    -0.81290
C502        C  0.67444429  0.96151914  0.01424773     1.08440
C503        C  0.76989367  0.01810259  0.91113567     1.08320
C504        C  0.67339338  0.02598246  0.93915407     1.08460
C505        C  0.77987660  0.92939563  0.99339076     1.08340
O506        O  0.76657548  0.96144493  0.07548227    -0.81250
O507        O  0.70795089  0.08808215  0.98079871    -0.81330
O508        O  0.67629192  0.02309247  0.05515058    -0.81270
O509        O  0.78980222  0.06929004  0.00071820    -0.81250
O510        O  0.76718129  0.08941260  0.94914259    -0.81300
O511        O  0.73226182  0.02569295  0.06894882    -0.81260
O512        O  0.79917554  0.00667348  0.05177933    -0.81220
O513        O  0.66136927  0.07320781  0.01533157    -0.81290
Co514      Co  0.74534842  0.98271819  0.03621936     1.51530
Co515      Co  0.74592647  0.04866240  0.97041731     1.51690
Co516      Co  0.69706824  0.03623295  0.00843451     1.51570
Co517      Co  0.79281325  0.01044379  0.99307540     1.51470
O518        O  0.73571524  0.00467765  0.99301715    -1.43190
C519        C  0.79023977  0.98590787  0.07932753     1.08360
C520        C  0.67879623  0.09660885  0.99803416     1.08450
C521        C  0.69960454  0.02622873  0.07925524     1.08390
C522        C  0.78126300  0.09650155  0.97957311     1.08370
O523        O  0.94071492  0.80053023  0.50696844    -0.81250
O524        O  0.03727604  0.79111752  0.42324493    -0.81280
O525        O  0.99696472  0.87240645  0.48286721    -0.81280
O526        O  0.95731180  0.73465872  0.50482956    -0.81230
O527        O  0.98105006  0.82221511  0.45547906    -0.81350
O528        O  0.93939752  0.74658729  0.56075068    -0.81270
O529        O  0.01966686  0.74044011  0.45090482    -0.81250
O530        O  0.94879655  0.85399654  0.53137370    -0.81290
C531        C  0.92967156  0.83233770  0.51246856     1.08440
C532        C  0.02880266  0.75826286  0.42150560     1.08320
C533        C  0.98158483  0.85645450  0.45686583     1.08460
C534        C  0.93083269  0.73732823  0.52895522     1.08340
O535        O  0.00532409  0.77290811  0.58513336    -0.81250
O536        O  0.05384245  0.84376873  0.46935003    -0.81330
O537        O  0.00618191  0.84406713  0.58388428    -0.81270
O538        O  0.07110569  0.73897896  0.51609231    -0.81250
O539        O  0.07664992  0.78371982  0.48016097    -0.81300
O540        O  0.95436201  0.81550146  0.58273005    -0.81260
O541        O  0.01616150  0.72089723  0.56391318    -0.81220
O542        O  0.05731091  0.85879353  0.52752493    -0.81290
Co543      Co  0.97369879  0.78120648  0.54474810     1.51530
Co544      Co  0.02657028  0.79910517  0.47090173     1.51690
Co545      Co  0.00376034  0.85372671  0.53180053     1.51570
Co546      Co  0.01563310  0.73957492  0.51004191     1.51470
O547        O  0.01401743  0.79913517  0.52090317    -1.43190
C548        C  0.01538990  0.74228819  0.59130962     1.08360
C549        C  0.07072116  0.85796043  0.49543657     1.08450
C550        C  0.97677004  0.83508230  0.59948660     1.08390
C551        C  0.09150915  0.76113254  0.50007993     1.08370
O552        O  0.82361048  0.94393876  0.43657010    -0.81250
O553        O  0.78163154  0.02306763  0.56148599    -0.81280
O554        O  0.85582763  0.99790839  0.50825658    -0.81280
O555        O  0.72017698  0.94862531  0.49752865    -0.81230
O556        O  0.81747769  0.02625918  0.54866456    -0.81350
O557        O  0.76454383  0.93084427  0.46231687    -0.81270
O558        O  0.72622281  0.00658869  0.54828023    -0.81250
O559        O  0.85375863  0.96771623  0.48151456    -0.81290
C560        C  0.84528028  0.94011202  0.46262137     1.08440
C561        C  0.75120870  0.01225192  0.57240630     1.08320
C562        C  0.84847770  0.01042885  0.54035421     1.08460
C563        C  0.73936373  0.92297590  0.48315858     1.08340
O564        O  0.76080306  0.96003651  0.40035644    -0.81250
O565        O  0.81429822  0.07524241  0.51306595    -0.81330
O566        O  0.86146500  0.01375845  0.42850559    -0.81270
O567        O  0.73193552  0.06094478  0.48318174    -0.81250
O568        O  0.75626995  0.08348409  0.53350675    -0.81300
O569        O  0.80338526  0.01730748  0.41271501    -0.81260
O570        O  0.72479918  0.00013835  0.43176559    -0.81220
O571        O  0.85648310  0.05202870  0.47799750    -0.81290
Co572      Co  0.77998217  0.97591579  0.44273585     1.51530
Co573      Co  0.77643166  0.03962294  0.51317591     1.51690
Co574      Co  0.82625333  0.00987182  0.46521771     1.51570
Co575      Co  0.72927952  0.00329954  0.49037713     1.51470
O576        O  0.78601122  0.99496860  0.49196079    -1.43190
C577        C  0.73534828  0.98360718  0.40125320     1.08360
C578        C  0.84472997  0.07716262  0.49831677     1.08450
C579        C  0.83764100  0.02050972  0.40487307     1.08390
C580        C  0.74151146  0.08895867  0.50307539     1.08370
O581        O  0.23624748  0.02285374  0.42993899    -0.81250
O582        O  0.26103380  0.08212786  0.54689056    -0.81280
O583        O  0.15546679  0.03864843  0.49717365    -0.81280
O584        O  0.30436369  0.00984342  0.43690597    -0.81230
O585        O  0.19889510  0.06883699  0.52514120    -0.81350
O586        O  0.27609569  0.96327056  0.40887625    -0.81270
O587        O  0.28959407  0.06941921  0.49516813    -0.81250
O588        O  0.18242379  0.00814594  0.44487509    -0.81290
C589        C  0.20335181  0.02103790  0.42193742     1.08440
C590        C  0.27574976  0.09374466  0.51866818     1.08320
C591        C  0.16592418  0.06600104  0.51451056     1.08460
C592        C  0.29601228  0.99085060  0.40702527     1.08340
O593        O  0.27178556  0.93216092  0.47100538    -0.81250
O594        O  0.21662600  0.01669759  0.56532202    -0.81330
O595        O  0.18240882  0.96591273  0.49724230    -0.81270
O596        O  0.30754203  0.01165659  0.55404810    -0.81250
O597        O  0.25092267  0.02029353  0.57169380    -0.81300
O598        O  0.21235775  0.94732215  0.44717620    -0.81260
O599        O  0.31653477  0.95537822  0.50157216    -0.81220
O600        O  0.17991207  0.98459500  0.53034697    -0.81290
Co601      Co  0.25631357  0.97763206  0.45283313     1.51530
Co602      Co  0.24683928  0.03931231  0.52398659     1.51690
Co603      Co  0.20061026  0.01546048  0.49428532     1.51570
Co604      Co  0.30129935  0.01053357  0.49685447     1.51470
O605        O  0.24706276  0.99403306  0.49974579    -1.43190
C606        C  0.29828020  0.92748980  0.49099096     1.08360
C607        C  0.18973047  0.99453749  0.56188223     1.08450
C608        C  0.19001080  0.94180442  0.47295790     1.08390
C609        C  0.28342911  0.01311014  0.57977280     1.08370
O610        O  0.98480435  0.23407597  0.58440603    -0.81250
O611        O  0.07595318  0.24959995  0.47240748    -0.81280
O612        O  0.03492088  0.17824107  0.53189755    -0.81280
O613        O  0.01190025  0.31436603  0.55420352    -0.81230
O614        O  0.05005555  0.18625379  0.47362703    -0.81350
O615        O  0.98524223  0.26931628  0.58148939    -0.81270
O616        O  0.06503988  0.30215424  0.49909234    -0.81250
O617        O  0.02358944  0.19167661  0.56360340    -0.81290
C618        C  0.00917378  0.20835035  0.59044072     1.08440
C619        C  0.08780478  0.27793230  0.48720315     1.08320
C620        C  0.05580792  0.17178030  0.50416897     1.08460
C621        C  0.00332328  0.29784061  0.58396153     1.08340
O622        O  0.92900954  0.28669743  0.54995462    -0.81250
O623        O  0.97711817  0.21370675  0.45460626    -0.81330
O624        O  0.95613284  0.17200936  0.55202397    -0.81270
O625        O  0.01014788  0.28641399  0.43829249    -0.81250
O626        O  0.03468604  0.23308965  0.41742066    -0.81300
O627        O  0.93232070  0.22197604  0.53040521    -0.81260
O628        O  0.94945195  0.29485668  0.49412662    -0.81220
O629        O  0.98574960  0.17025583  0.49079190    -0.81290
Co630      Co  0.97085755  0.26068918  0.53414812     1.51530
Co631      Co  0.02594190  0.23386658  0.46563697     1.51690
Co632      Co  0.98775458  0.20608298  0.52997245     1.51570
Co633      Co  0.00905090  0.29708548  0.49784130     1.51470
O634        O  0.01603169  0.24433877  0.51374384    -1.43190
C635        C  0.92185113  0.29209108  0.51702777     1.08360
C636        C  0.97629254  0.18017357  0.46020889     1.08450
C637        C  0.92882627  0.18996052  0.54150385     1.08390
C638        C  0.02084850  0.26399588  0.41119401     1.08370
O639        O  0.02633870  0.97309447  0.35071252    -0.81250
O640        O  0.07135758  0.99772609  0.21637932    -0.81280
O641        O  0.00880832  0.93479840  0.27050860    -0.81280
O642        O  0.08610222  0.06458579  0.30268629    -0.81230
O643        O  0.01975662  0.94719743  0.21461400    -0.81350
O644        O  0.08215195  0.01119305  0.32470019    -0.81270
O645        O  0.07924683  0.05090780  0.23699002    -0.81250
O646        O  0.97438850  0.96233035  0.32313674    -0.81290
C647        C  0.99727715  0.95545158  0.34753038     1.08440
C648        C  0.09313362  0.02171370  0.22658740     1.08320
C649        C  0.01808632  0.92382780  0.23977717     1.08460
C650        C  0.10084691  0.03866434  0.31876446     1.08340
O651        O  0.03497855  0.04888623  0.36806838    -0.81250
O652        O  0.95669245  0.00184086  0.22001613    -0.81330
O653        O  0.95873450  0.02883880  0.28078291    -0.81270
O654        O  0.04064600  0.10221718  0.25886730    -0.81250
O655        O  0.01103851  0.06353259  0.22024788    -0.81300
O656        O  0.97429820  0.02695763  0.33612312    -0.81260
O657        O  0.01327567  0.07746937  0.31941892    -0.81220
O658        O  0.94171238  0.96030090  0.25951592    -0.81290
Co659      Co  0.02960017  0.01972788  0.32668660     1.51530
Co660      Co  0.01619421  0.00359961  0.22148037     1.51690
Co661      Co  0.98476229  0.98124120  0.27414311     1.51570
Co662      Co  0.04094844  0.05670623  0.27460881     1.51470
O663        O  0.02969795  0.00300672  0.27758855    -1.43190
C664        C  0.01996537  0.07668399  0.35399739     1.08360
C665        C  0.93191643  0.98100627  0.23470915     1.08450
C666        C  0.95044039  0.03437042  0.31305913     1.08390
C667        C  0.01945129  0.09676906  0.23231717     1.08370
O668        O  0.07247849  0.95579662  0.68763610    -0.81250
O669        O  0.98164595  0.08339577  0.73084456    -0.81280
O670        O  0.03755540  0.06717857  0.66369314    -0.81280
O671        O  0.07143659  0.02405623  0.78768483    -0.81230
O672        O  0.98681909  0.07954186  0.69309174    -0.81350
O673        O  0.09331727  0.99642119  0.73919250    -0.81270
O674        O  0.01536875  0.07471282  0.77881232    -0.81250
O675        O  0.07206037  0.00431493  0.65416073    -0.81290
C676        C  0.08628413  0.97473319  0.66335884     1.08440
C677        C  0.99933500  0.09657349  0.75749996     1.08320
C678        C  0.01299497  0.08961326  0.67237604     1.08460
C679        C  0.09842761  0.01543276  0.76665792     1.08340
O680        O  0.06418634  0.93426497  0.75479107    -0.81250
O681        O  0.96359472  0.02407452  0.66448009    -0.81330
O682        O  0.00777916  0.96455930  0.66431986    -0.81270
O683        O  0.95665720  0.01446523  0.77250500    -0.81250
O684        O  0.93049666  0.03930119  0.72397907    -0.81300
O685        O  0.00089809  0.95169970  0.72081997    -0.81260
O686        O  0.01740776  0.95931919  0.78483238    -0.81220
O687        O  0.00550033  0.01877589  0.61991237    -0.81290
Co688      Co  0.04770478  0.97517775  0.73176806     1.51530
Co689      Co  0.97913792  0.03081729  0.71724195     1.51690
Co690      Co  0.02252321  0.01712641  0.66774577     1.51570
Co691      Co  0.01616138  0.01850097  0.77648125     1.51470
O692        O  0.02980336  0.02038551  0.71982849    -1.43190
C693        C  0.03833952  0.93068103  0.77673873     1.08360
C694        C  0.97242778  0.02047941  0.63068590     1.08450
C695        C  0.99675649  0.94348863  0.68834837     1.08390
C696        C  0.92744740  0.02375147  0.75371869     1.08370
C697        C  0.99796350  0.24510863  0.25602665    -0.00550
C698        C  0.00475201  0.27214217  0.23144349    -0.00550
C699        C  0.75079822  0.98895169  0.22772599    -0.00550
C700        C  0.77375958  0.98634177  0.25694308    -0.00550
C701        C  0.03476253  0.74505928  0.24088231    -0.00550
C702        C  0.03275186  0.77025110  0.26904606    -0.00550
C703        C  0.27439104  0.01736956  0.23280962    -0.00550
C704        C  0.24959102  0.01887755  0.26125052    -0.00550
C705        C  0.27138546  0.27883625  0.50254107    -0.00550
C706        C  0.24598334  0.25182153  0.49653830    -0.00550
C707        C  0.74484105  0.27056516  0.49123788    -0.00550
C708        C  0.77106437  0.24268094  0.48644328    -0.00550
C709        C  0.27178900  0.74933406  0.50004923    -0.00550
C710        C  0.25122179  0.78094346  0.50389999    -0.00550
C711        C  0.27525645  0.01708986  0.76024518    -0.00550
C712        C  0.24995846  0.01673547  0.73269580    -0.00550
C713        C  0.24849053  0.27427321  0.00407094    -0.00550
C714        C  0.27475053  0.24709725  0.00423047    -0.00550
C715        C  0.24610507  0.75006163  0.00634999    -0.00550
C716        C  0.27390182  0.77478206  0.00971994    -0.00550
C717        C  0.49802932  0.75428376  0.25319276    -0.00550
C718        C  0.50082539  0.77965417  0.22649176    -0.00550
C719        C  0.51806522  0.27710138  0.25692135    -0.00550
C720        C  0.51447538  0.25238004  0.22854681    -0.00550
C721        C  0.51042087  0.24566050  0.75236163    -0.00550
C722        C  0.50806938  0.27270419  0.72680364    -0.00550
C723        C  0.01078511  0.27675289  0.75821028    -0.00550
C724        C  0.01618641  0.25232975  0.72956336    -0.00550
C725        C  0.74478889  0.25014762  0.01632259    -0.00550
C726        C  0.77354879  0.27404776  0.01444853    -0.00550
C727        C  0.27706660  0.49909911  0.26552780    -0.00550
C728        C  0.25166672  0.50331533  0.23844093    -0.00550
C729        C  0.75145621  0.49462625  0.26393599    -0.00550
C730        C  0.77665644  0.50004244  0.23623021    -0.00550
C731        C  0.27249380  0.49541175  0.73486533    -0.00550
C732        C  0.24422286  0.49651536  0.75999204    -0.00550
C733        C  0.02609795  0.77636397  0.74458686    -0.00550
C734        C  0.02626978  0.74936947  0.77022494    -0.00550
C735        C  0.77380940  0.01235756  0.72972919    -0.00550
C736        C  0.74715003  0.00445314  0.75498481    -0.00550
C737        C  0.77222776  0.74955354  0.99875321    -0.00550
C738        C  0.74626036  0.77562176  0.99005980    -0.00550
C739        C  0.74629762  0.50370747  0.74256051    -0.00550
C740        C  0.77247350  0.50996613  0.76888842    -0.00550
C741        C  0.75102439  0.74252349  0.51808162    -0.00550
C742        C  0.77397050  0.77208835  0.51367265    -0.00550
C743        C  0.49459596  0.77065647  0.75485303    -0.00550
C744        C  0.49408054  0.74449826  0.72743080    -0.00550
C745        C  0.88901394  0.01414924  0.76199941    -0.07240
C746        C  0.86537124  0.04255848  0.77325437    -0.18370
C747        C  0.82825025  0.04371037  0.76330803     0.09960
C748        C  0.81343872  0.01524984  0.74125059    -0.07160
C749        C  0.83705912  0.98661389  0.73083196    -0.18400
C750        C  0.87368678  0.98539409  0.74160954     0.09990
S751        S  0.80404193  0.08486604  0.77651107    -0.33370
S752        S  0.90081055  0.94758085  0.72545832    -0.33370
H753        H  0.92809206  0.95084480  0.75178612     0.28000
H754        H  0.77127634  0.07763482  0.75890178     0.27990
H755        H  0.87682904  0.06601482  0.78691021     0.18590
H756        H  0.82679056  0.96460559  0.71409064     0.18590
C757        C  0.00306864  0.13749083  0.75837380    -0.07240
C758        C  0.03709963  0.15406589  0.76280780    -0.18370
C759        C  0.04274901  0.19093849  0.75387065     0.09960
C760        C  0.01471769  0.21151534  0.73655498    -0.07160
C761        C  0.98129472  0.19412328  0.73138575    -0.18400
C762        C  0.97436181  0.15951169  0.74525769     0.09990
S763        S  0.08700265  0.20868499  0.76458695    -0.33370
S764        S  0.92744246  0.14577085  0.74835419    -0.33370
H765        H  0.93283388  0.12072967  0.77616803     0.28000
H766        H  0.07957288  0.24531230  0.75833881     0.27990
H767        H  0.05964586  0.13816687  0.77296538     0.18590
H768        H  0.95922232  0.20866494  0.71860904     0.18590
C769        C  0.13711961  0.02437434  0.77166224    -0.07240
C770        C  0.15919897  0.99430183  0.77974770    -0.18370
C771        C  0.19372713  0.98878654  0.76374840     0.09960
C772        C  0.20952620  0.01607986  0.74211319    -0.07160
C773        C  0.18774016  0.04685168  0.73504271    -0.18400
C774        C  0.15222852  0.05117583  0.74938898     0.09990
S775        S  0.21348617  0.94432667  0.76925804    -0.33370
S776        S  0.12571199  0.08979644  0.73520738    -0.33370
H777        H  0.09967903  0.08774276  0.76321227     0.28000
H778        H  0.23909840  0.94618739  0.74128570     0.27990
H779        H  0.14721092  0.97212136  0.79436368     0.18590
H780        H  0.19793263  0.06772347  0.71780584     0.18590
C781        C  0.03041037  0.89120252  0.78356118    -0.07240
C782        C  0.99683793  0.87606672  0.77288338    -0.18370
C783        C  0.99410312  0.83895581  0.76132786     0.09960
C784        C  0.02597579  0.81663636  0.75681516    -0.07160
C785        C  0.05891910  0.83243883  0.76731858    -0.18400
C786        C  0.06084002  0.86704531  0.78370486     0.09990
S787        S  0.94958266  0.82272993  0.74997023    -0.33370
S788        S  0.10497091  0.88095627  0.79973041    -0.33370
H789        H  0.09155575  0.90967529  0.82197206     0.28000
H790        H  0.95605565  0.78708624  0.76117710     0.27990
H791        H  0.97303448  0.89364163  0.77130946     0.18590
H792        H  0.08420780  0.81847085  0.76185968     0.18590
C793        C  0.20888526  0.02042427  0.25306925    -0.07240
C794        C  0.18832600  0.98854410  0.25549884    -0.18370
C795        C  0.15184184  0.98659260  0.24333319     0.09960
C796        C  0.13408445  0.01757878  0.22923366    -0.07160
C797        C  0.15475746  0.04928661  0.22662322    -0.18400
C798        C  0.19123422  0.05122195  0.23792709     0.09990
S799        S  0.12858015  0.94457917  0.24925974    -0.33370
S800        S  0.21182881  0.09510666  0.23326769    -0.33370
H801        H  0.24706405  0.08617113  0.24434250     0.28000
H802        H  0.11408654  0.94414613  0.21405904     0.27990
H803        H  0.20095520  0.96460841  0.26672275     0.18590
H804        H  0.14175938  0.07369074  0.21670137     0.18590
C805        C  0.03077367  0.81053053  0.26065616    -0.07240
C806        C  0.99641365  0.82736378  0.25800760    -0.18370
C807        C  0.99191730  0.86212884  0.24399555     0.09960
C808        C  0.02238116  0.88355324  0.23551686    -0.07160
C809        C  0.05706423  0.86703530  0.23799908    -0.18400
C810        C  0.06138053  0.83078555  0.24954089     0.09990
S811        S  0.94590296  0.87826761  0.23869467    -0.33370
S812        S  0.10672932  0.81245251  0.25222259    -0.33370
H813        H  0.10597105  0.81388850  0.29035958     0.28000
H814        H  0.95425831  0.90237309  0.21082406     0.27990
H815        H  0.97225354  0.81299767  0.26533586     0.18590
H816        H  0.08101219  0.88294591  0.23294620     0.18590
C817        C  0.81490856  0.98600272  0.25114527    -0.07240
C818        C  0.83265775  0.01665520  0.23714286    -0.18370
C819        C  0.87030905  0.01590447  0.22773309     0.09960
C820        C  0.89093937  0.98331323  0.23054497    -0.07160
C821        C  0.87207948  0.95255443  0.24234269    -0.18400
C822        C  0.83604181  0.95411787  0.25513733     0.09990
S823        S  0.89066017  0.05757705  0.21418112    -0.33370
S824        S  0.81851903  0.91484452  0.27745539    -0.33370
H825        H  0.85157742  0.89542172  0.28041709     0.28000
H826        H  0.91215696  0.04105005  0.18658968     0.27990
H827        H  0.81710696  0.04154095  0.23391352     0.18590
H828        H  0.88690107  0.92729135  0.24480977     0.18590
C829        C  0.99851775  0.20556126  0.24290688    -0.07240
C830        C  0.02918449  0.19218453  0.22340053    -0.18370
C831        C  0.03113866  0.15680523  0.20900950     0.09960
C832        C  0.00466245  0.13131132  0.21861550    -0.07160
C833        C  0.97286127  0.14461201  0.23621476    -0.18400
C834        C  0.96942163  0.18126155  0.24828544     0.09990
S835        S  0.07195094  0.14332683  0.18439998    -0.33370
S836        S  0.92914428  0.19527170  0.27326600    -0.33370
H837        H  0.90892313  0.16382063  0.26631483     0.28000
H838        H  0.05805741  0.11038164  0.17093476     0.27990
H839        H  0.05258648  0.20912397  0.21992546     0.18590
H840        H  0.95271521  0.12526712  0.24461319     0.18590
C841        C  0.01309241  0.30564560  0.62267376    -0.07240
C842        C  0.04545957  0.28913526  0.63511175    -0.18370
C843        C  0.04726725  0.27090193  0.66880048     0.09960
C844        C  0.01560753  0.26729753  0.69082524    -0.07160
C845        C  0.98398819  0.28576414  0.67928047    -0.18400
C846        C  0.98325342  0.30634432  0.64741721     0.09990
S847        S  0.09027971  0.25233975  0.68306691    -0.33370
S848        S  0.94112723  0.32924371  0.63670666    -0.33370
H849        H  0.95591520  0.35019109  0.60884666     0.28000
H850        H  0.11159600  0.26673121  0.65507834     0.27990
H851        H  0.06860319  0.28761315  0.61688950     0.18590
H852        H  0.95968793  0.28529462  0.69606506     0.18590
C853        C  0.88233833  0.28505707  0.50608617    -0.07240
C854        C  0.87369098  0.26912747  0.47204192    -0.18370
C855        C  0.83854771  0.25474226  0.46452417     0.09960
C856        C  0.81128062  0.25341319  0.49229683    -0.07160
C857        C  0.82061435  0.26834470  0.52634597    -0.18400
C858        C  0.85400302  0.28582468  0.53279326     0.09990
S859        S  0.83055288  0.23877049  0.41878730    -0.33370
S860        S  0.85908980  0.31024374  0.57550220    -0.33370
H861        H  0.82251613  0.30876140  0.58702790     0.28000
H862        H  0.79247615  0.24263447  0.41964835     0.27990
H863        H  0.89458296  0.26739032  0.45113861     0.18590
H864        H  0.80051647  0.26790675  0.54786377     0.18590
C865        C  0.12890260  0.27962970  0.48939218    -0.07240
C866        C  0.14863370  0.26431420  0.45972036    -0.18370
C867        C  0.18580340  0.25454560  0.46175721     0.09960
C868        C  0.20561226  0.26203750  0.49368506    -0.07160
C869        C  0.18653120  0.27913587  0.52301892    -0.18400
C870        C  0.14865179  0.28729332  0.52144664     0.09990
S871        S  0.20718592  0.23144080  0.42336133    -0.33370
S872        S  0.12670444  0.30495488  0.56195463    -0.33370
H873        H  0.09626113  0.28248094  0.55881202     0.28000
H874        H  0.17689378  0.23157363  0.40024653     0.27990
H875        H  0.13404781  0.25784803  0.43511914     0.18590
H876        H  0.20089315  0.28464426  0.54802453     0.18590
C877        C  0.01667230  0.27063769  0.37135244    -0.07240
C878        C  0.98232491  0.27831079  0.35646499    -0.18370
C879        C  0.97485347  0.27105737  0.31926985     0.09960
C880        C  0.00169407  0.25338789  0.29648015    -0.07160
C881        C  0.03578685  0.24619717  0.31175483    -0.18400
C882        C  0.04412630  0.25657234  0.34741174     0.09990
S883        S  0.92980352  0.28344930  0.30424697    -0.33370
S884        S  0.09062931  0.24947294  0.36151404    -0.33370
H885        H  0.08938151  0.27663772  0.38886082     0.28000
H886        H  0.93369457  0.27182171  0.26808427     0.27990
H887        H  0.96058272  0.28823976  0.37423618     0.18590
H888        H  0.05667121  0.23246285  0.29559504     0.18590
C889        C  0.97571313  0.15296646  0.43066174    -0.07240
C890        C  0.98314101  0.16456876  0.39529520    -0.18370
C891        C  0.99851572  0.14060785  0.36945905     0.09960
C892        C  0.00341843  0.10387818  0.37825790    -0.07160
C893        C  0.99121372  0.09159124  0.41153101    -0.18400
C894        C  0.97849156  0.11535340  0.43806339     0.09990
S895        S  0.01441673  0.15907762  0.32755477    -0.33370
S896        S  0.97085844  0.09438260  0.48104109    -0.33370
H897        H  0.94719659  0.12036122  0.49588303     0.28000
H898        H  0.04725765  0.13896391  0.32667126     0.27990
H899        H  0.98099551  0.19304182  0.38889902     0.18590
H900        H  0.99320669  0.06300686  0.41775374     0.18590
C901        C  0.01518922  0.19354934  0.62603610    -0.07240
C902        C  0.98310872  0.18223550  0.64247531    -0.18370
C903        C  0.98146077  0.14750002  0.65606089     0.09960
C904        C  0.01395854  0.12706908  0.66030404    -0.07160
C905        C  0.04741910  0.14210301  0.65070689    -0.18400
C906        C  0.04831764  0.17487582  0.63264257     0.09990
S907        S  0.93668462  0.12865648  0.66038421    -0.33370
S908        S  0.09121350  0.18777555  0.61266534    -0.33370
H909        H  0.07950519  0.22226442  0.60170497     0.28000
H910        H  0.94530799  0.09666070  0.64070398     0.27990
H911        H  0.95767430  0.19642267  0.63713946     0.18590
H912        H  0.07254871  0.12683936  0.65427101     0.18590
C913        C  0.26243238  0.01627618  0.69303576    -0.07240
C914        C  0.26046263  0.98345952  0.67314438    -0.18370
C915        C  0.27379596  0.97980716  0.63735647     0.09960
C916        C  0.28960191  0.00935500  0.61948732    -0.07160
C917        C  0.29323997  0.04172112  0.63969016    -0.18400
C918        C  0.27945149  0.04587039  0.67544640     0.09990
S919        S  0.26710260  0.93727680  0.61425286    -0.33370
S920        S  0.28113456  0.09118639  0.69419653    -0.33370
H921        H  0.25252493  0.08770330  0.71878593     0.28000
H922        H  0.29710300  0.94211012  0.59095070     0.27990
H923        H  0.24778100  0.96031624  0.68506631     0.18590
H924        H  0.30309405  0.06544908  0.62599503     0.18590
C925        C  0.27056614  0.13461434  0.51254541    -0.07240
C926        C  0.28640337  0.15224075  0.48285452    -0.18370
C927        C  0.27968805  0.18971573  0.47593949     0.09960
C928        C  0.25560627  0.21111281  0.49897045    -0.07160
C929        C  0.23919551  0.19306264  0.52768117    -0.18400
C930        C  0.24672233  0.15659738  0.53538496     0.09990
S931        S  0.30209021  0.20671382  0.43623674    -0.33370
S932        S  0.22393171  0.14117123  0.57575694    -0.33370
H933        H  0.25686979  0.13287694  0.59329369     0.28000
H934        H  0.28278599  0.23932219  0.43481035     0.27990
H935        H  0.30408648  0.13664441  0.46457113     0.18590
H936        H  0.22093074  0.20829508  0.54575394     0.18590
C937        C  0.30411955  0.88813388  0.50009176    -0.07240
C938        C  0.28880022  0.87545554  0.53258751    -0.18370
C939        C  0.27254217  0.84085485  0.53505595     0.09960
C940        C  0.27034548  0.81775849  0.50395706    -0.07160
C941        C  0.28987047  0.82848167  0.47289473    -0.18400
C942        C  0.30662724  0.86260821  0.47082831     0.09990
S943        S  0.25440861  0.82832719  0.57863958    -0.33370
S944        S  0.32767867  0.87389563  0.42825900    -0.33370
H945        H  0.34759421  0.90331488  0.44210878     0.28000
H946        H  0.25653486  0.79061175  0.57310571     0.27990
H947        H  0.28629662  0.89381372  0.55541093     0.18590
H948        H  0.29130840  0.81043362  0.44940243     0.18590
C949        C  0.29859618  0.00441534  0.36901292    -0.07240
C950        C  0.27963817  0.03673702  0.36109094    -0.18370
C951        C  0.26217281  0.04179654  0.32726388     0.09960
C952        C  0.26375928  0.01414177  0.29987443    -0.07160
C953        C  0.28519526  0.98314134  0.30711659    -0.18400
C954        C  0.30312525  0.97860076  0.34030684     0.09990
S955        S  0.23774818  0.08361649  0.31995184    -0.33370
S956        S  0.32953291  0.93749521  0.34567431    -0.33370
H957        H  0.34918178  0.95005431  0.37592296     0.28000
H958        H  0.24576724  0.10058207  0.35338550     0.27990
H959        H  0.27566836  0.05678705  0.38262987     0.18590
H960        H  0.28859228  0.96219654  0.28638994     0.18590
C961        C  0.14144668  0.09613492  0.51807911    -0.07240
C962        C  0.14499417  0.12210674  0.49142785    -0.18370
C963        C  0.11699199  0.14651414  0.48526316     0.09960
C964        C  0.08582535  0.14622663  0.50802327    -0.07160
C965        C  0.08368048  0.12149377  0.53643214    -0.18400
C966        C  0.11085455  0.09569174  0.54111673     0.09990
S967        S  0.12261685  0.17577981  0.44718429    -0.33370
S968        S  0.10462838  0.06327926  0.57660866    -0.33370
H969        H  0.12172960  0.03377612  0.55864884     0.28000
H970        H  0.09462851  0.15907245  0.42734593     0.27990
H971        H  0.16851177  0.12144045  0.47335033     0.18590
H972        H  0.06001515  0.12114260  0.55420783     0.18590
C973        C  0.13745111  0.04064790  0.33360905    -0.07240
C974        C  0.15686372  0.00785338  0.33506708    -0.18370
C975        C  0.18344552  0.00258579  0.36099635     0.09960
C976        C  0.18969944  0.03041635  0.38663838    -0.07160
C977        C  0.17354046  0.06465099  0.38276561    -0.18400
C978        C  0.14809376  0.07043717  0.35552089     0.09990
S979        S  0.20500617  0.95852851  0.36430189    -0.33370
S980        S  0.12613056  0.11432772  0.35413059    -0.33370
H981        H  0.12789038  0.11593339  0.31604909     0.28000
H982        H  0.19192448  0.94383452  0.33149542     0.27990
H983        H  0.14811609  0.98490197  0.31885816     0.18590
H984        H  0.17861869  0.08600348  0.40264530     0.18590
C985        C  0.17021568  0.98110356  0.59335502    -0.07240
C986        C  0.14492971  0.95347174  0.58714998    -0.18370
C987        C  0.11930201  0.94499254  0.61313727     0.09960
C988        C  0.11998363  0.96384285  0.64646091    -0.07160
C989        C  0.14878404  0.98668636  0.65512843    -0.18400
C990        C  0.17199393  0.99807087  0.62797967     0.09990
S991        S  0.08360401  0.91441641  0.59952189    -0.33370
S992        S  0.19494612  0.04010029  0.63708394    -0.33370
H993        H  0.18017266  0.05788043  0.60706520     0.28000
H994        H  0.05929557  0.92103840  0.62833179     0.27990
H995        H  0.14182628  0.94146355  0.56045201     0.18590
H996        H  0.14817460  0.00168504  0.68075192     0.18590
C997        C  0.76145485  0.20180457  0.48073921    -0.07240
C998        C  0.78883353  0.17474381  0.47661168    -0.18370
C999        C  0.77935413  0.13768988  0.47399003     0.09960
C1000       C  0.74540476  0.12641383  0.48786610    -0.07160
C1001       C  0.71779565  0.15292264  0.48932643    -0.18400
C1002       C  0.72558507  0.18784196  0.47631633     0.09990
S1003       S  0.79984638  0.11203748  0.43714193    -0.33370
S1004       S  0.70206324  0.19666759  0.43468705    -0.33370
H1005       H  0.72812977  0.22058855  0.42111087     0.28000
H1006       H  0.78226093  0.07934241  0.44329218     0.27990
H1007       H  0.81661443  0.18222452  0.47106626     0.18590
H1008       H  0.68985471  0.14465905  0.49309769     0.18590
C1009       C  0.75766779  0.98740431  0.29492512    -0.07240
C1010       C  0.75978656  0.01988051  0.31535671    -0.18370
C1011       C  0.74217096  0.02398167  0.34929287     0.09960
C1012       C  0.72395899  0.99446321  0.36469504    -0.07160
C1013       C  0.71660964  0.96477107  0.34188371    -0.18400
C1014       C  0.73458189  0.95988463  0.30837905     0.09990
S1015       S  0.74503850  0.06696796  0.37276966    -0.33370
S1016       S  0.73063862  0.91607473  0.28657980    -0.33370
H1017       H  0.69759744  0.90651611  0.30322867     0.28000
H1018       H  0.71646228  0.06047313  0.39733423     0.27990
H1019       H  0.77471982  0.04241887  0.30452377     0.18590
H1020       H  0.70255182  0.94202201  0.35343946     0.18590
C1021       C  0.76494928  0.01250741  0.68920707    -0.07240
C1022       C  0.75226100  0.98084135  0.67134847    -0.18370
C1023       C  0.74361091  0.98006114  0.63381875     0.09960
C1024       C  0.74660318  0.01186474  0.61310309    -0.07160
C1025       C  0.75777329  0.04358610  0.63147658    -0.18400
C1026       C  0.76750355  0.04418992  0.66834647     0.09990
S1027       S  0.73218958  0.93704196  0.61345561    -0.33370
S1028       S  0.78483289  0.08579866  0.68715041    -0.33370
H1029       H  0.76951420  0.10892328  0.66129321     0.28000
H1030       H  0.71140961  0.95141275  0.58521057     0.27990
H1031       H  0.75007624  0.95615118  0.68656864     0.18590
H1032       H  0.76170835  0.06781370  0.61585158     0.18590
C1033       C  0.73659656  0.88296069  0.49005700    -0.07240
C1034       C  0.73193605  0.87003814  0.52521901    -0.18370
C1035       C  0.74149869  0.83395449  0.53410830     0.09960
C1036       C  0.75816200  0.81001315  0.50731435    -0.07160
C1037       C  0.76027376  0.82253814  0.47177532    -0.18400
C1038       C  0.74843391  0.85760280  0.46262103     0.09990
S1039       S  0.73244681  0.82254622  0.58068405    -0.33370
S1040       S  0.74908886  0.86981583  0.41526164    -0.33370
H1041       H  0.76009654  0.83577153  0.40084561     0.28000
H1042       H  0.75045320  0.78883324  0.58017229     0.27990
H1043       H  0.72261389  0.88871678  0.54644534     0.18590
H1044       H  0.77146027  0.80449298  0.45086918     0.18590
C1045       C  0.86551102  0.10836044  0.50850638    -0.07240
C1046       C  0.86388746  0.11828644  0.54558480    -0.18370
C1047       C  0.87912049  0.15017844  0.55772868     0.09960
C1048       C  0.89603373  0.17185245  0.53247540    -0.07160
C1049       C  0.89175753  0.16563237  0.49529296    -0.18400
C1050       C  0.87927924  0.13251805  0.48296463     0.09990
S1051       S  0.87519632  0.16310497  0.60485745    -0.33370
S1052       S  0.88647389  0.12180379  0.43566083    -0.33370
H1053       H  0.89882255  0.08613058  0.44090590     0.28000
H1054       H  0.88671189  0.19902065  0.60070014     0.27990
H1055       H  0.85091938  0.10096190  0.56515323     0.18590
H1056       H  0.90404093  0.18363799  0.47597010     0.18590
C1057       C  0.91203335  0.03673278  0.32408124    -0.07240
C1058       C  0.89400861  0.00363484  0.32527715    -0.18370
C1059       C  0.86364589  0.99945113  0.34727344     0.09960
C1060       C  0.85063487  0.02892709  0.36851562    -0.07160
C1061       C  0.86470909  0.06348786  0.36263487    -0.18400
C1062       C  0.89588032  0.06767312  0.34086182     0.09990
S1063       S  0.84822024  0.95410949  0.35420408    -0.33370
S1064       S  0.91526167  0.11206625  0.33791106    -0.33370
H1065       H  0.93796767  0.10418879  0.30782397     0.28000
H1066       H  0.81151380  0.96516657  0.35541340     0.27990
H1067       H  0.90605415  0.97960626  0.31279383     0.18590
H1068       H  0.85378112  0.08646400  0.37793651     0.18590
C1069       C  0.87907306  0.01258992  0.56514935    -0.07240
C1070       C  0.90808860  0.03475919  0.55448588    -0.18370
C1071       C  0.93905736  0.03809569  0.57571438     0.09960
C1072       C  0.94252617  0.01633450  0.60589908    -0.07160
C1073       C  0.91382210  0.99426178  0.61669843    -0.18400
C1074       C  0.88167667  0.99291386  0.59730157     0.09990
S1075       S  0.97141941  0.07320924  0.56722903    -0.33370
S1076       S  0.84571960  0.96630478  0.61584415    -0.33370
H1077       H  0.81850084  0.99137877  0.60774279     0.28000
H1078       H  0.94440025  0.09828270  0.55696406     0.27990
H1079       H  0.90647910  0.05013166  0.52994291     0.18590
H1080       H  0.91564541  0.97968113  0.64165780     0.18590
C1081       C  0.13268311  0.76392726  0.50291501    -0.07240
C1082       C  0.14995971  0.78750009  0.47845319    -0.18370
C1083       C  0.18715195  0.79546595  0.47977789     0.09960
C1084       C  0.20974492  0.77892380  0.50574187    -0.07160
C1085       C  0.19245406  0.75672537  0.53154877    -0.18400
C1086       C  0.15480721  0.74865175  0.53009429     0.09990
S1087       S  0.20305995  0.82783970  0.44751341    -0.33370
S1088       S  0.13677785  0.71924542  0.56389840    -0.33370
H1089       H  0.11993127  0.69636431  0.53829665     0.28000
H1090       H  0.23104246  0.80629467  0.43270922     0.27990
H1091       H  0.13424498  0.80051270  0.45751337     0.18590
H1092       H  0.20864121  0.74479939  0.55273080     0.18590
C1093       C  0.03020544  0.75843989  0.30815518    -0.07240
C1094       C  0.06274536  0.75410926  0.32746647    -0.18370
C1095       C  0.06290865  0.74566180  0.36442302     0.09960
C1096       C  0.02978591  0.74313693  0.38401453    -0.07160
C1097       C  0.99724349  0.74461055  0.36445535    -0.18400
C1098       C  0.99689829  0.75179490  0.32701451     0.09990
S1099       S  0.10647481  0.74328181  0.38667838    -0.33370
S1100       S  0.95233882  0.75444055  0.30702002    -0.33370
H1101       H  0.96353710  0.75439918  0.27096894     0.28000
H1102       H  0.09384097  0.72509398  0.41742334     0.27990
H1103       H  0.08852020  0.75859267  0.31413293     0.18590
H1104       H  0.97157653  0.74379241  0.37916958     0.18590
C1105       C  0.02163575  0.73547702  0.63086002    -0.07240
C1106       C  0.05453972  0.74796119  0.64579391    -0.18370
C1107       C  0.05678021  0.76188915  0.68198573     0.09960
C1108       C  0.02513037  0.76502922  0.70434651    -0.07160
C1109       C  0.99265266  0.75122160  0.68988493    -0.18400
C1110       C  0.99081762  0.73608910  0.65445961     0.09990
S1111       S  0.10015327  0.77700905  0.69846516    -0.33370
S1112       S  0.94709265  0.72022639  0.63978683    -0.33370
H1113       H  0.96117337  0.69705816  0.61215212     0.28000
H1114       H  0.12139409  0.76205021  0.66980691     0.27990
H1115       H  0.07804444  0.74960455  0.62800816     0.18590
H1116       H  0.96826922  0.75172988  0.70659003     0.18590
C1117       C  0.81555993  0.76822488  0.51269478    -0.07240
C1118       C  0.83442073  0.74870446  0.48440700    -0.18370
C1119       C  0.87151502  0.73689321  0.48809660     0.09960
C1120       C  0.89114269  0.74628252  0.51991490    -0.07160
C1121       C  0.87327797  0.77065170  0.54465170    -0.18400
C1122       C  0.83690828  0.78164477  0.54150514     0.09990
S1123       S  0.89091381  0.70789881  0.45300282    -0.33370
S1124       S  0.81932064  0.81264059  0.57578765    -0.33370
H1125       H  0.84443252  0.80436679  0.60313727     0.28000
H1126       H  0.91297275  0.68769157  0.47641942     0.27990
H1127       H  0.81923460  0.73962317  0.46093783     0.18590
H1128       H  0.88798846  0.78198906  0.56735915     0.18590
C1129       C  0.89521717  0.84510880  0.49778110    -0.07240
C1130       C  0.87378087  0.86545934  0.52203822    -0.18370
C1131       C  0.85306418  0.89422169  0.51015669     0.09960
C1132       C  0.85618276  0.90409426  0.47357296    -0.07160
C1133       C  0.87089544  0.87924218  0.44811879    -0.18400
C1134       C  0.88937633  0.84842488  0.46007782     0.09990
S1135       S  0.82431527  0.91703872  0.54336397    -0.33370
S1136       S  0.90522694  0.81592153  0.42619732    -0.33370
H1137       H  0.91019967  0.78725770  0.44997245     0.28000
H1138       H  0.80218120  0.93540203  0.51919959     0.27990
H1139       H  0.87576705  0.86092277  0.55075059     0.18590
H1140       H  0.86987464  0.88483023  0.41938698     0.18590
C1141       C  0.10571084  0.87325681  0.48673515    -0.07240
C1142       C  0.13215438  0.87437322  0.51365483    -0.18370
C1143       C  0.16462122  0.89183370  0.50732729     0.09960
C1144       C  0.16968617  0.90918801  0.47404098    -0.07160
C1145       C  0.14599858  0.90362562  0.44547474    -0.18400
C1146       C  0.11387067  0.88565821  0.45128562     0.09990
S1147       S  0.19728855  0.89333321  0.54346711    -0.33370
S1148       S  0.08329707  0.88388126  0.41329479    -0.33370
H1149       H  0.08840805  0.84620751  0.40825746     0.28000
H1150       H  0.22439814  0.91183537  0.52472043     0.27990
H1151       H  0.12714622  0.86256645  0.53989295     0.18590
H1152       H  0.15050751  0.91680595  0.41980128     0.18590
C1153       C  0.97221107  0.87817682  0.42591889    -0.07240
C1154       C  0.98720472  0.86641929  0.39267986    -0.18370
C1155       C  0.99746418  0.89159582  0.36727187     0.09960
C1156       C  0.98825724  0.92831011  0.37340483    -0.07160
C1157       C  0.96842483  0.93941354  0.40415450    -0.18400
C1158       C  0.96128426  0.91482581  0.43130793     0.09990
S1159       S  0.02617524  0.87577335  0.33037042    -0.33370
S1160       S  0.94267252  0.93142293  0.47420549    -0.33370
H1161       H  0.93386386  0.96669997  0.46302032     0.28000
H1162       H  0.04770660  0.90688666  0.32870883     0.27990
H1163       H  0.99618840  0.83849624  0.38877961     0.18590
H1164       H  0.96089300  0.96776596  0.40787673     0.18590
C1165       C  0.97002087  0.84648571  0.63661777    -0.07240
C1166       C  0.00077526  0.84633932  0.65829978    -0.18370
C1167       C  0.00978233  0.87757618  0.67752125     0.09960
C1168       C  0.98496134  0.90732850  0.67806685    -0.07160
C1169       C  0.95072505  0.90363151  0.66232867    -0.18400
C1170       C  0.94242335  0.87231117  0.64277180     0.09990
S1171       S  0.05562549  0.88081737  0.69398724    -0.33370
S1172       S  0.89915032  0.86823945  0.62082953    -0.33370
H1173       H  0.89373159  0.90566176  0.61704530     0.28000
H1174       H  0.06887960  0.84699270  0.68134418     0.27990
H1175       H  0.02113483  0.82522860  0.65366419     0.18590
H1176       H  0.93185851  0.92599788  0.66251245     0.18590
C1177       C  0.77843559  0.13605684  0.99179624    -0.07240
C1178       C  0.76290660  0.14548301  0.02587930    -0.18370
C1179       C  0.75023960  0.18130079  0.03457117     0.09960
C1180       C  0.75203284  0.20934482  0.00846793    -0.07160
C1181       C  0.76554665  0.19899658  0.97387853    -0.18400
C1182       C  0.78019969  0.16413607  0.96600977     0.09990
S1183       S  0.72999757  0.18799904  0.07874657    -0.33370
S1184       S  0.80159004  0.15750753  0.92214728    -0.33370
H1185       H  0.82582278  0.12999754  0.93307958     0.28000
H1186       H  0.74056851  0.22365741  0.08269636     0.27990
H1187       H  0.75906425  0.12437265  0.04551275     0.18590
H1188       H  0.76613202  0.21901617  0.95282767     0.18590
C1189       C  0.75661429  0.81593548  0.98846531    -0.07240
C1190       C  0.77343776  0.83233998  0.01868031    -0.18370
C1191       C  0.78842469  0.86725920  0.01771223     0.09960
C1192       C  0.78414731  0.88930362  0.98691552    -0.07160
C1193       C  0.76596718  0.87378703  0.95705776    -0.18400
C1194       C  0.75219260  0.83791618  0.95742448     0.09990
S1195       S  0.80999722  0.88373918  0.05848063    -0.33370
S1196       S  0.72603264  0.82253699  0.91921321    -0.33370
H1197       H  0.73158935  0.85260149  0.89707366     0.28000
H1198       H  0.83030596  0.91073998  0.04150451     0.27990
H1199       H  0.77449365  0.81794751  0.04388574     0.18590
H1200       H  0.75988413  0.89103973  0.93443131     0.18590
C1201       C  0.77381490  0.01516905  0.87055640    -0.07240
C1202       C  0.78295523  0.98257513  0.85208080    -0.18370
C1203       C  0.77630622  0.97803621  0.81429888     0.09960
C1204       C  0.75581998  0.00499252  0.79536000    -0.07160
C1205       C  0.74588174  0.03662136  0.81476964    -0.18400
C1206       C  0.75848123  0.04342056  0.85002156     0.09990
S1207       S  0.79410042  0.93681450  0.79328827    -0.33370
S1208       S  0.75805898  0.08944712  0.86768217    -0.33370
H1209       H  0.74408767  0.10606319  0.83661935     0.28000
H1210       H  0.78195807  0.94282187  0.75801954     0.27990
H1211       H  0.79488433  0.96047556  0.86706943     0.18590
H1212       H  0.73079869  0.05764615  0.80106772     0.18590
C1213       C  0.76675726  0.98917443  0.18949817    -0.07240
C1214       C  0.76701833  0.02213833  0.17082994    -0.18370
C1215       C  0.78338421  0.02491903  0.13612809     0.09960
C1216       C  0.79862479  0.99377570  0.11829770    -0.07160
C1217       C  0.80302235  0.96263659  0.13906954    -0.18400
C1218       C  0.78636421  0.95925659  0.17316997     0.09990
S1219       S  0.78355782  0.06883940  0.11568533    -0.33370
S1220       S  0.78877276  0.91409152  0.19074314    -0.33370
H1221       H  0.76880037  0.92104580  0.22222788     0.28000
H1222       H  0.81357311  0.06106904  0.09274832     0.27990
H1223       H  0.75461826  0.04607134  0.18352370     0.18590
H1224       H  0.81483772  0.93852565  0.12609195     0.18590
C1225       C  0.26392315  0.81511264  0.01041335    -0.07240
C1226       C  0.26367747  0.83481870  0.97790559    -0.18370
C1227       C  0.24885183  0.87058573  0.97657406     0.09960
C1228       C  0.23097442  0.88632763  0.00751158    -0.07160
C1229       C  0.22703467  0.86434837  0.03785785    -0.18400
C1230       C  0.24691267  0.83196423  0.04117904     0.09990
S1231       S  0.25509079  0.89529383  0.93545308    -0.33370
S1232       S  0.25704724  0.81870276  0.08667350    -0.33370
H1233       H  0.22679066  0.83567141  0.10387362     0.28000
H1234       H  0.22187407  0.91457406  0.93872107     0.27990
H1235       H  0.27562909  0.82258209  0.95357531     0.18590
H1236       H  0.21433893  0.87625717  0.06201400     0.18590
C1237       C  0.24227824  0.13306205  0.00645434    -0.07240
C1238       C  0.26705413  0.14701077  0.03188912    -0.18370
C1239       C  0.27811081  0.18337319  0.03176039     0.09960
C1240       C  0.26408964  0.20740368  0.00557854    -0.07160
C1241       C  0.23862879  0.19341280  0.98056885    -0.18400
C1242       C  0.22742781  0.15713415  0.98103685     0.09990
S1243       S  0.31084502  0.19683436  0.06539797    -0.33370
S1244       S  0.19662135  0.14227388  0.94617551    -0.33370
H1245       H  0.18226655  0.11339712  0.96575361     0.28000
H1246       H  0.29547502  0.23140494  0.07198230     0.27990
H1247       H  0.27975978  0.12869016  0.05074865     0.18590
H1248       H  0.22776648  0.21076418  0.95980364     0.18590
C1249       C  0.23557001  0.01999476  0.87396874    -0.07240
C1250       C  0.25792558  0.99111116  0.86094669    -0.18370
C1251       C  0.27091487  0.98923819  0.82456966     0.09960
C1252       C  0.26267866  0.01747180  0.80010448    -0.07160
C1253       C  0.23859175  0.04514558  0.81296848    -0.18400
C1254       C  0.22483672  0.04636424  0.84869141     0.09990
S1255       S  0.29660578  0.94917158  0.81117354    -0.33370
S1256       S  0.19439142  0.08347533  0.86097281    -0.33370
H1257       H  0.17826101  0.06639724  0.89074049     0.28000
H1258       H  0.29124455  0.95057543  0.77392663     0.27990
H1259       H  0.26696139  0.97072071  0.87974744     0.18590
H1260       H  0.22973361  0.06614388  0.79487774     0.18590
C1261       C  0.23310283  0.01473029  0.12147071    -0.07240
C1262       C  0.23231602  0.98353482  0.14266218    -0.18370
C1263       C  0.24502728  0.98329420  0.17852669     0.09960
C1264       C  0.26074543  0.01508246  0.19402635    -0.07160
C1265       C  0.25920150  0.04690379  0.17347352    -0.18400
C1266       C  0.24364202  0.04741504  0.13852992     0.09990
S1267       S  0.24196370  0.94022992  0.20083631    -0.33370
S1268       S  0.23998237  0.09017825  0.11588164    -0.33370
H1269       H  0.21494625  0.07846240  0.08965051     0.28000
H1270       H  0.25897569  0.94969234  0.23329095     0.27990
H1271       H  0.22444506  0.95807272  0.12999204     0.18590
H1272       H  0.26994963  0.07179346  0.18478180     0.18590
C1273       C  0.51528186  0.14156460  0.26709925    -0.07240
C1274       C  0.48286797  0.16241788  0.26773860    -0.18370
C1275       C  0.48065426  0.19690326  0.25237295     0.09960
C1276       C  0.51241043  0.21274523  0.23757899    -0.07160
C1277       C  0.54505591  0.19237617  0.23813457    -0.18400
C1278       C  0.54685324  0.15771014  0.25317203     0.09990
S1279       S  0.43544274  0.21675580  0.24994326    -0.33370
S1280       S  0.59006338  0.13444924  0.25252696    -0.33370
H1281       H  0.58043902  0.11010846  0.27970274     0.28000
H1282       H  0.44502332  0.25156445  0.23940657     0.27990
H1283       H  0.45781542  0.14983590  0.27643097     0.18590
H1284       H  0.56971946  0.20361501  0.22720942     0.18590
C1285       C  0.50692556  0.81902796  0.23790787    -0.07240
C1286       C  0.47704464  0.84263649  0.24583249    -0.18370
C1287       C  0.48149641  0.87841613  0.25910245     0.09960
C1288       C  0.51668054  0.89181007  0.26540545    -0.07160
C1289       C  0.54620252  0.86704157  0.26129610    -0.18400
C1290       C  0.54202707  0.83174927  0.24694767     0.09990
S1291       S  0.44135492  0.90657505  0.26498909    -0.33370
S1292       S  0.58351424  0.80621331  0.23773650    -0.33370
H1293       H  0.56929796  0.77150081  0.24049235     0.28000
H1294       H  0.45513886  0.92656492  0.29456805     0.27990
H1295       H  0.44966019  0.83366497  0.24194888     0.18590
H1296       H  0.57364106  0.87680759  0.26526851     0.18590
C1297       C  0.38802018  0.02909780  0.26783605    -0.07240
C1298       C  0.37785030  0.99869262  0.24678570    -0.18370
C1299       C  0.34200457  0.99488256  0.23320629     0.09960
C1300       C  0.31490048  0.02186887  0.24096629    -0.07160
C1301       C  0.32532623  0.05197785  0.26238918    -0.18400
C1302       C  0.36057952  0.05529614  0.27649665     0.09990
S1303       S  0.33224902  0.95606186  0.20485439    -0.33370
S1304       S  0.36929029  0.09449293  0.30497819    -0.33370
H1305       H  0.39924442  0.07909153  0.32295294     0.28000
H1306       H  0.36197996  0.93468058  0.21597911     0.27990
H1307       H  0.39875830  0.97918223  0.23857528     0.18590
H1308       H  0.30535097  0.07291993  0.26916894     0.18590
C1309       C  0.70989113  0.99403288  0.23462681    -0.07240
C1310       C  0.69630160  0.02566910  0.25297191    -0.18370
C1311       C  0.65996352  0.02849049  0.26654545     0.09960
C1312       C  0.63598340  0.99909403  0.26217591    -0.07160
C1313       C  0.65082749  0.96692013  0.24629592    -0.18400
C1314       C  0.68565891  0.96491822  0.23039994     0.09990
S1315       S  0.64668452  0.06934032  0.29057064    -0.33370
S1316       S  0.69780836  0.92456964  0.20441476    -0.33370
H1317       H  0.66310661  0.90894405  0.20324385     0.28000
H1318       H  0.62093775  0.05272977  0.31296838     0.27990
H1319       H  0.71452222  0.04809657  0.25756868     0.18590
H1320       H  0.63329948  0.94371011  0.24317097     0.18590
C1321       C  0.36273263  0.98827692  0.09323001    -0.07240
C1322       C  0.38470834  0.95939703  0.10490859    -0.18370
C1323       C  0.40577273  0.96294005  0.13631120     0.09960
C1324       C  0.40818664  0.99716344  0.15374813    -0.07160
C1325       C  0.38299829  0.02423600  0.14477250    -0.18400
C1326       C  0.35944759  0.01958379  0.11580790     0.09990
S1327       S  0.42446885  0.92238596  0.15565327    -0.33370
S1328       S  0.32529312  0.05437782  0.11113951    -0.33370
H1329       H  0.31426044  0.04633989  0.07565763     0.28000
H1330       H  0.42505127  0.93595491  0.19147793     0.27990
H1331       H  0.38414978  0.93350726  0.09082952     0.18590
H1332       H  0.38213458  0.04978062  0.15982906     0.18590
C1333       C  0.68793564  0.02603297  0.11710569    -0.07240
C1334       C  0.67055602  0.05772438  0.13013437    -0.18370
C1335       C  0.63848517  0.05583442  0.15056407     0.09960
C1336       C  0.62527718  0.02145677  0.15959691    -0.07160
C1337       C  0.64696992  0.99061746  0.15307516    -0.18400
C1338       C  0.67808576  0.99248130  0.13155816     0.09990
S1339       S  0.61449827  0.09758353  0.16174989    -0.33370
S1340       S  0.70130183  0.95096429  0.11840698    -0.33370
H1341       H  0.67271792  0.92737010  0.12652264     0.28000
H1342       H  0.59656269  0.08406010  0.19233150     0.27990
H1343       H  0.67943730  0.08366699  0.12073821     0.18590
H1344       H  0.63750663  0.96440610  0.16153152     0.18590
C1345       C  0.63404746  0.29715368  0.01653316    -0.07240
C1346       C  0.65551691  0.29907414  0.04788666    -0.18370
C1347       C  0.69116829  0.28471077  0.04896726     0.09960
C1348       C  0.70609707  0.26555727  0.01810339    -0.07160
C1349       C  0.68577861  0.26681606  0.98575418    -0.18400
C1350       C  0.65138177  0.28454077  0.98431238     0.09990
S1351       S  0.71384898  0.29120608  0.09182008    -0.33370
S1352       S  0.63094587  0.29128661  0.94075017    -0.33370
H1353       H  0.61124314  0.32270253  0.95160169     0.28000
H1354       H  0.74936465  0.28419972  0.08008747     0.27990
H1355       H  0.64312885  0.30940087  0.07290146     0.18590
H1356       H  0.69770267  0.25562272  0.96091876     0.18590
C1357       C  0.31464701  0.25686278  0.00022002    -0.07240
C1358       C  0.33117430  0.28109533  0.02532118    -0.18370
C1359       C  0.36749201  0.29279161  0.02101359     0.09960
C1360       C  0.38848717  0.27992527  0.99108190    -0.07160
C1361       C  0.37121446  0.25714263  0.96540430    -0.18400
C1362       C  0.33579223  0.24461159  0.97009612     0.09990
S1363       S  0.38562029  0.32290332  0.05507003    -0.33370
S1364       S  0.32076180  0.21122729  0.93729362    -0.33370
H1365       H  0.28558950  0.22554796  0.93372087     0.28000
H1366       H  0.40882928  0.34093483  0.03115997     0.27990
H1367       H  0.31576799  0.29070887  0.04883393     0.18590
H1368       H  0.38675190  0.24649558  0.94228893     0.18590
C1369       C  0.49807723  0.28183293  0.86735176    -0.07240
C1370       C  0.53333965  0.27748156  0.85207362    -0.18370
C1371       C  0.53885365  0.26634331  0.81501656     0.09960
C1372       C  0.50866912  0.25576764  0.79305844    -0.07160
C1373       C  0.47405063  0.25974278  0.80899472    -0.18400
C1374       C  0.46838530  0.27547961  0.84358215     0.09990
S1375       S  0.58527383  0.26492355  0.79862325    -0.33370
S1376       S  0.42161236  0.28521908  0.85657652    -0.33370
H1377       H  0.43005887  0.31194539  0.88284137     0.28000
H1378       H  0.57795694  0.26076285  0.76153682     0.27990
H1379       H  0.55676776  0.28131809  0.86933166     0.18590
H1380       H  0.45046978  0.25171508  0.79379474     0.18590
C1381       C  0.51083816  0.26438139  0.18911343    -0.07240
C1382       C  0.47958170  0.25528364  0.16915558    -0.18370
C1383       C  0.47407599  0.26701361  0.13333988     0.09960
C1384       C  0.49975715  0.28955055  0.11611048    -0.07160
C1385       C  0.53017526  0.29995939  0.13660264    -0.18400
C1386       C  0.53695349  0.28611177  0.17136652     0.09990
S1387       S  0.43569265  0.24840104  0.10940797    -0.33370
S1388       S  0.58247132  0.29134275  0.18801548    -0.33370
H1389       H  0.58567926  0.25534334  0.19903238     0.28000
H1390       H  0.43863348  0.26975494  0.07848569     0.27990
H1391       H  0.45975015  0.23746666  0.18069039     0.18590
H1392       H  0.55186930  0.31429244  0.12314044     0.18590
C1393       C  0.51999902  0.15279116  0.07992434    -0.07240
C1394       C  0.49625426  0.12412249  0.07303623    -0.18370
C1395       C  0.47974628  0.10593539  0.10086901     0.09960
C1396       C  0.48930708  0.11441570  0.13691869    -0.07160
C1397       C  0.51211676  0.14359450  0.14454965    -0.18400
C1398       C  0.52797768  0.16275982  0.11634835     0.09990
S1399       S  0.44923719  0.06914815  0.08987912    -0.33370
S1400       S  0.55953916  0.19761364  0.12895466    -0.33370
H1401       H  0.58769702  0.18309377  0.10673052     0.28000
H1402       H  0.45539281  0.06785728  0.05216727     0.27990
H1403       H  0.49049481  0.11559103  0.04550129     0.18590
H1404       H  0.52040853  0.14916854  0.17223584     0.18590
C1405       C  0.36907081  0.09576308  0.97639800    -0.07240
C1406       C  0.37581718  0.11390762  0.94424432    -0.18370
C1407       C  0.40480302  0.13758491  0.94181860     0.09960
C1408       C  0.42717478  0.14321935  0.97248737    -0.07160
C1409       C  0.41776584  0.12787703  0.00547059    -0.18400
C1410       C  0.38821240  0.10519171  0.00772264     0.09990
S1411       S  0.41149787  0.15956035  0.89913252    -0.33370
S1412       S  0.37243793  0.09397430  0.05169605    -0.33370
H1413       H  0.33547104  0.09607700  0.04236054     0.28000
H1414       H  0.44850094  0.14921846  0.89673263     0.27990
H1415       H  0.35884318  0.10945578  0.92087777     0.18590
H1416       H  0.43198886  0.13535257  0.03003405     0.18590
C1417       C  0.66707317  0.13411051  0.99682580    -0.07240
C1418       C  0.67039980  0.15193074  0.96372319    -0.18370
C1419       C  0.65114818  0.18396633  0.95848745     0.09960
C1420       C  0.63030424  0.19829969  0.98758447    -0.07160
C1421       C  0.63739969  0.18687270  0.02278685    -0.18400
C1422       C  0.65324633  0.15303579  0.02749434     0.09990
S1423       S  0.64976280  0.20170483  0.91326148    -0.33370
S1424       S  0.65229470  0.13449844  0.07215463    -0.33370
H1425       H  0.68611271  0.11643746  0.06778813     0.28000
H1426       H  0.61567959  0.21920926  0.91680108     0.27990
H1427       H  0.68453665  0.13913966  0.94088459     0.18590
H1428       H  0.62370371  0.20003154  0.04572618     0.18590
C1429       C  0.70734106  0.00203934  0.74370815    -0.07240
C1430       C  0.68998753  0.03088216  0.72539458    -0.18370
C1431       C  0.65289312  0.02949717  0.71489527     0.09960
C1432       C  0.63160713  0.99925359  0.72400300    -0.07160
C1433       C  0.64968391  0.96993477  0.74043270    -0.18400
C1434       C  0.68637658  0.97105732  0.75041613     0.09990
S1435       S  0.63441689  0.06727789  0.69075116    -0.33370
S1436       S  0.70445251  0.93183628  0.77223747    -0.33370
H1437       H  0.72437553  0.92099932  0.74102038     0.28000
H1438       H  0.61099998  0.04630076  0.66923043     0.27990
H1439       H  0.70536296  0.05491987  0.71950399     0.18590
H1440       H  0.63429172  0.94617278  0.74751315     0.18590
C1441       C  0.38746853  0.03104235  0.72062970    -0.07240
C1442       C  0.36799896  0.05878677  0.74004812    -0.18370
C1443       C  0.33368804  0.05361106  0.75593505     0.09960
C1444       C  0.31537796  0.02062864  0.75036055    -0.07160
C1445       C  0.33386173  0.99312584  0.72961461    -0.18400
C1446       C  0.36950691  0.99767976  0.71545764     0.09990
S1447       S  0.31542248  0.09078278  0.78333704    -0.33370
S1448       S  0.38985998  0.96039582  0.69003763    -0.33370
H1449       H  0.40859432  0.98240096  0.66559440     0.28000
H1450       H  0.27974162  0.08857196  0.77151891     0.27990
H1451       H  0.38047870  0.08479273  0.74512922     0.18590
H1452       H  0.32010635  0.96806239  0.72339234     0.18590
C1453       C  0.52554883  0.13308758  0.71138428    -0.07240
C1454       C  0.49653764  0.15498572  0.69954915    -0.18370
C1455       C  0.48884800  0.18930427  0.71551641     0.09960
C1456       C  0.51379082  0.20596036  0.73983228    -0.07160
C1457       C  0.54479265  0.18544812  0.74900834    -0.18400
C1458       C  0.55034634  0.14945551  0.73613446     0.09990
S1459       S  0.44385241  0.20732193  0.70814037    -0.33370
S1460       S  0.58673547  0.12417992  0.75711762    -0.33370
H1461       H  0.57950593  0.09017635  0.74134532     0.28000
H1462       H  0.43801295  0.21672984  0.74470236     0.27990
H1463       H  0.47567525  0.14256696  0.68296469     0.18590
H1464       H  0.56421150  0.19680156  0.76775631     0.18590
C1465       C  0.49944667  0.81035397  0.74607749    -0.07240
C1466       C  0.53520904  0.82319476  0.74596248    -0.18370
C1467       C  0.54357864  0.85787070  0.73401585     0.09960
C1468       C  0.51548734  0.88360163  0.72701776    -0.07160
C1469       C  0.47941435  0.87119219  0.72709038    -0.18400
C1470       C  0.47127949  0.83463637  0.73493290     0.09990
S1471       S  0.59131862  0.86840548  0.72972583    -0.33370
S1472       S  0.42422422  0.82194277  0.73226729    -0.33370
H1473       H  0.43072743  0.78543936  0.72302178     0.28000
H1474       H  0.58621782  0.89690539  0.70537116     0.27990
H1475       H  0.55741202  0.80505060  0.75289211     0.18590
H1476       H  0.45731886  0.89035317  0.72270926     0.18590
C1477       C  0.50848286  0.11923153  0.83402345    -0.07240
C1478       C  0.54044038  0.11072156  0.85247403    -0.18370
C1479       C  0.55627705  0.13576830  0.87542970     0.09960
C1480       C  0.53963057  0.17022481  0.87979379    -0.07160
C1481       C  0.51274335  0.18102424  0.85526771    -0.18400
C1482       C  0.49604690  0.15542840  0.83283125     0.09990
S1483       S  0.59179516  0.11892639  0.90435356    -0.33370
S1484       S  0.45661974  0.17008341  0.80777159    -0.33370
H1485       H  0.44179713  0.13630160  0.79942790     0.28000
H1486       H  0.59628671  0.15106468  0.92406590     0.27990
H1487       H  0.55193291  0.08365467  0.85104275     0.18590
H1488       H  0.49969228  0.20725073  0.85866634     0.18590
C1489       C  0.39449421  0.02071565  0.82102305    -0.07240
C1490       C  0.38615870  0.98456436  0.82825961    -0.18370
C1491       C  0.36699742  0.97580013  0.85947869     0.09960
C1492       C  0.35419590  0.00378168  0.88284904    -0.07160
C1493       C  0.35746249  0.03981121  0.87212928    -0.18400
C1494       C  0.37861760  0.04869155  0.84246202     0.09990
S1495       S  0.36177678  0.92880884  0.86823668    -0.33370
S1496       S  0.38804991  0.09576055  0.83664961    -0.33370
H1497       H  0.42197742  0.09227551  0.85372528     0.28000
H1498       H  0.32743513  0.93391354  0.88495275     0.27990
H1499       H  0.39720138  0.96273582  0.81117753     0.18590
H1500       H  0.34557448  0.06147960  0.88854268     0.18590
C1501       C  0.64718470  0.01762556  0.91068774    -0.07240
C1502       C  0.62237622  0.98977644  0.91756661    -0.18370
C1503       C  0.59591510  0.98042883  0.89278178     0.09960
C1504       C  0.59346296  0.00015259  0.86088301    -0.07160
C1505       C  0.61777815  0.02785774  0.85353695    -0.18400
C1506       C  0.64439322  0.03719247  0.87835463     0.09990
S1507       S  0.56548741  0.94422701  0.90403530    -0.33370
S1508       S  0.66985859  0.07704303  0.86889183    -0.33370
H1509       H  0.66991836  0.08977671  0.90496316     0.28000
H1510       H  0.53399327  0.96111519  0.89071257     0.27990
H1511       H  0.62288294  0.97548321  0.94286924     0.18590
H1512       H  0.61472785  0.04353243  0.82911536     0.18590
C1513       C  0.31368661  0.76141181  0.00920285    -0.07240
C1514       C  0.33337682  0.75964881  0.97601254    -0.18370
C1515       C  0.36927477  0.74478629  0.97332214     0.09960
C1516       C  0.38726590  0.73220474  0.00462244    -0.07160
C1517       C  0.36636321  0.73082154  0.03663085    -0.18400
C1518       C  0.33114764  0.74588002  0.03977808     0.09990
S1519       S  0.39081780  0.74289107  0.92934399    -0.33370
S1520       S  0.31324530  0.74680228  0.08534759    -0.33370
H1521       H  0.27729614  0.75212141  0.07588930     0.28000
H1522       H  0.41181673  0.71166040  0.93630030     0.27990
H1523       H  0.32083429  0.77002191  0.95181281     0.18590
H1524       H  0.37941213  0.72137425  0.06107732     0.18590
C1525       C  0.63377477  0.73645567  0.99449838    -0.07240
C1526       C  0.65541430  0.72999864  0.96334285    -0.18370
C1527       C  0.69116242  0.74307530  0.96010504     0.09960
C1528       C  0.70652091  0.76430621  0.98879892    -0.07160
C1529       C  0.68520530  0.76950785  0.02049889    -0.18400
C1530       C  0.65014578  0.75468876  0.02404192     0.09990
S1531       S  0.71341124  0.73317456  0.91709549    -0.33370
S1532       S  0.62722708  0.75972868  0.06716080    -0.33370
H1533       H  0.59866184  0.73625205  0.05878502     0.28000
H1534       H  0.74646530  0.74987220  0.92454713     0.27990
H1535       H  0.64308389  0.71720708  0.93981048     0.18590
H1536       H  0.69630448  0.78457465  0.04325211     0.18590
C1537       C  0.50183154  0.76757462  0.18659436    -0.07240
C1538       C  0.53104140  0.74558049  0.17276136    -0.18370
C1539       C  0.53220018  0.73214907  0.13640644     0.09960
C1540       C  0.50354997  0.74046934  0.11248596    -0.07160
C1541       C  0.47326309  0.75979899  0.12735365    -0.18400
C1542       C  0.47251183  0.77424450  0.16282700     0.09990
S1543       S  0.57064087  0.70435342  0.12257757    -0.33370
S1544       S  0.43423398  0.80354379  0.17400673    -0.33370
H1545       H  0.42876567  0.79005302  0.20863220     0.28000
H1546       H  0.55382930  0.68861239  0.09212640     0.27990
H1547       H  0.55344671  0.73875617  0.19028676     0.18590
H1548       H  0.45096723  0.76706390  0.10966145     0.18590
C1549       C  0.52114172  0.73772292  0.86533408    -0.07240
C1550       C  0.48516955  0.74799933  0.85681378    -0.18370
C1551       C  0.47544478  0.75815497  0.82136540     0.09960
C1552       C  0.50228554  0.75891615  0.79343415    -0.07160
C1553       C  0.53763335  0.74657558  0.80185664    -0.18400
C1554       C  0.54690214  0.73509146  0.83664838     0.09990
S1555       S  0.42917612  0.77287771  0.81460109    -0.33370
S1556       S  0.59308406  0.71940936  0.84343717    -0.33370
H1557       H  0.58543985  0.69976355  0.87486542     0.28000
H1558       H  0.42672877  0.75810437  0.77943740     0.27990
H1559       H  0.46514932  0.75108093  0.87846350     0.18590
H1560       H  0.55869345  0.74636672  0.78131269     0.18590
C1561       C  0.46725520  0.92292414  0.85328791    -0.07240
C1562       C  0.47988241  0.88995719  0.83737805    -0.18370
C1563       C  0.49150287  0.86190771  0.85919791     0.09960
C1564       C  0.48297659  0.86362438  0.89624342    -0.07160
C1565       C  0.46341533  0.89345409  0.91074535    -0.18400
C1566       C  0.45696857  0.92394212  0.89046648     0.09990
S1567       S  0.52522396  0.83106060  0.84030791    -0.33370
S1568       S  0.44223141  0.96358707  0.91676030    -0.33370
H1569       H  0.42913414  0.98464222  0.88872572     0.28000
H1570       H  0.54927286  0.83311938  0.86972827     0.27990
H1571       H  0.48805356  0.88857191  0.80906911     0.18590
H1572       H  0.45748747  0.89517006  0.93952193     0.18590
C1573       C  0.46732346  0.87105031  0.08727842    -0.07240
C1574       C  0.48791629  0.86496203  0.11830013    -0.18370
C1575       C  0.51172656  0.89125328  0.13075883     0.09960
C1576       C  0.50952556  0.92635501  0.11615600    -0.07160
C1577       C  0.48578839  0.93332882  0.08749986    -0.18400
C1578       C  0.46420014  0.90622946  0.07350284     0.09990
S1579       S  0.54699897  0.87842340  0.16225378    -0.33370
S1580       S  0.43758167  0.91654758  0.03424874    -0.33370
H1581       H  0.41426711  0.88782321  0.04071100     0.28000
H1582       H  0.53767838  0.84176470  0.16530572     0.27990
H1583       H  0.49129657  0.83747915  0.12747344     0.18590
H1584       H  0.48288402  0.96029840  0.07663698     0.18590
C1585       C  0.39829727  0.83275659  0.97120484    -0.07240
C1586       C  0.37904664  0.83604279  0.00415713    -0.18370
C1587       C  0.35406043  0.86447335  0.00970686     0.09960
C1588       C  0.34783270  0.88829053  0.98085809    -0.07160
C1589       C  0.35842065  0.87702205  0.94597470    -0.18400
C1590       C  0.38420871  0.84951267  0.94058668     0.09990
S1591       S  0.33525441  0.87072124  0.05469362    -0.33370
S1592       S  0.39773303  0.83698640  0.89493175    -0.33370
H1593       H  0.42312088  0.80999223  0.90429295     0.28000
H1594       H  0.34080078  0.90801221  0.05669245     0.27990
H1595       H  0.38744109  0.82030983  0.02722029     0.18590
H1596       H  0.34728999  0.89079250  0.92314186     0.18590
C1597       C  0.61952796  0.86450704  0.98812855    -0.07240
C1598       C  0.63695714  0.88248155  0.95998617    -0.18370
C1599       C  0.65768040  0.91316285  0.96778098     0.09960
C1600       C  0.65707815  0.92783779  0.00365933    -0.07160
C1601       C  0.64427825  0.90696551  0.03184131    -0.18400
C1602       C  0.62735572  0.87443652  0.02470775     0.09990
S1603       S  0.68553238  0.93027310  0.93155399    -0.33370
S1604       S  0.61237968  0.84853885  0.06314837    -0.33370
H1605       H  0.63183205  0.86739879  0.09011039     0.28000
H1606       H  0.70990856  0.94956741  0.95335090     0.27990
H1607       H  0.63313298  0.87376151  0.93205115     0.18590
H1608       H  0.64685496  0.91666326  0.05962774     0.18590
C1609       C  0.88331379  0.78876437  0.01846311    -0.07240
C1610       C  0.87177614  0.78145430  0.98273752    -0.18370
C1611       C  0.83613667  0.76854182  0.97534182     0.09960
C1612       C  0.81186095  0.76030867  0.00423289    -0.07160
C1613       C  0.82370051  0.76773231  0.03964482    -0.18400
C1614       C  0.85723727  0.78413482  0.04663797     0.09990
S1615       S  0.82282192  0.76066412  0.92898761    -0.33370
S1616       S  0.86657541  0.79645196  0.09319664    -0.33370
H1617       H  0.89353108  0.82174340  0.08472431     0.28000
H1618       H  0.85399873  0.77533489  0.91278702     0.27990
H1619       H  0.89144794  0.78334258  0.96086671     0.18590
H1620       H  0.80581139  0.76281151  0.06234099     0.18590
C1621       C  0.20639963  0.76384555  0.00518949    -0.07240
C1622       C  0.19237934  0.77700466  0.97243830    -0.18370
C1623       C  0.15687916  0.79208554  0.96999900     0.09960
C1624       C  0.13353964  0.79487215  0.00086205    -0.07160
C1625       C  0.14862979  0.78490812  0.03427920    -0.18400
C1626       C  0.18416279  0.76921642  0.03671744     0.09990
S1627       S  0.14177615  0.80555389  0.92580180    -0.33370
S1628       S  0.19910808  0.75340080  0.08005068    -0.33370
H1629       H  0.17343508  0.77335496  0.10114150     0.28000
H1630       H  0.11301440  0.82816707  0.93847339     0.27990
H1631       H  0.20906289  0.77536505  0.94816673     0.18590
H1632       H  0.13104108  0.78561269  0.05799760     0.18590
C1633       C  0.02403069  0.75985989  0.81063905    -0.07240
C1634       C  0.99049651  0.75715485  0.82942629    -0.18370
C1635       C  0.98655276  0.76762669  0.86652408     0.09960
C1636       C  0.01583778  0.78373823  0.88548165    -0.07160
C1637       C  0.04787187  0.78964770  0.86569678    -0.18400
C1638       C  0.05340336  0.77547313  0.83042795     0.09990
S1639       S  0.94466481  0.75655872  0.88932623    -0.33370
S1640       S  0.10058534  0.77285279  0.81676071    -0.33370
H1641       H  0.09425805  0.76599181  0.78043611     0.28000
H1642       H  0.94886473  0.78121444  0.91850238     0.27990
H1643       H  0.96740565  0.74558883  0.81557355     0.18590
H1644       H  0.07128657  0.79992140  0.88019095     0.18590
C1645       C  0.01737642  0.78918592  0.13241741    -0.07240
C1646       C  0.05154708  0.77427921  0.14158715    -0.18370
C1647       C  0.05805415  0.75942083  0.17615849     0.09960
C1648       C  0.02969491  0.75868600  0.20244280    -0.07160
C1649       C  0.99602813  0.77475228  0.19332404    -0.18400
C1650       C  0.99011355  0.79081441  0.15964998     0.09990
S1651       S  0.10184999  0.73915823  0.18495154    -0.33370
S1652       S  0.94567936  0.81021233  0.15163613    -0.33370
H1653       H  0.95657854  0.83174404  0.12251615     0.28000
H1654       H  0.12052568  0.75608000  0.15658989     0.27990
H1655       H  0.07216608  0.77119322  0.12052239     0.18590
H1656       H  0.97361005  0.77427704  0.21245046     0.18590
C1657       C  0.88200903  0.22567919  0.99633442    -0.07240
C1658       C  0.86737519  0.22740128  0.03157090    -0.18370
C1659       C  0.83191334  0.24174243  0.03847158     0.09960
C1660       C  0.81193162  0.25847567  0.01010507    -0.07160
C1661       C  0.82607126  0.25490892  0.97481360    -0.18400
C1662       C  0.85889911  0.23599467  0.96751797     0.09990
S1663       S  0.81392007  0.23980315  0.08397557    -0.33370
S1664       S  0.87411458  0.22965695  0.92102471    -0.33370
H1665       H  0.84170867  0.24160057  0.90468643     0.28000
H1666       H  0.84111044  0.21677833  0.09781886     0.27990
H1667       H  0.88471058  0.22015704  0.05399785     0.18590
H1668       H  0.81044065  0.26573855  0.95262059     0.18590
C1669       C  0.00518749  0.26373433  0.79694121    -0.07240
C1670       C  0.03444128  0.26593224  0.82142772    -0.18370
C1671       C  0.03192966  0.25297651  0.85727281     0.09960
C1672       C  0.99860745  0.23986186  0.87092255    -0.07160
C1673       C  0.97013206  0.23580989  0.84589786    -0.18400
C1674       C  0.97273348  0.24708691  0.80973017     0.09990
S1675       S  0.07231477  0.25352613  0.88403951    -0.33370
S1676       S  0.93159106  0.24124123  0.78379550    -0.33370
H1677       H  0.94283561  0.25844372  0.75227443     0.28000
H1678       H  0.06507365  0.22061701  0.90109708     0.27990
H1679       H  0.05987864  0.27736888  0.81238819     0.18590
H1680       H  0.94422674  0.22574049  0.85544638     0.18590
C1681       C  0.13228233  0.24844831  0.99763711    -0.07240
C1682       C  0.15387287  0.23398852  0.02538460    -0.18370
C1683       C  0.19044615  0.24419218  0.03026373     0.09960
C1684       C  0.20802976  0.26612867  0.00431020    -0.07160
C1685       C  0.18668144  0.27985648  0.97621561    -0.18400
C1686       C  0.14938519  0.27265272  0.97341467     0.09990
S1687       S  0.21116002  0.23216771  0.07260053    -0.33370
S1688       S  0.12480084  0.30069600  0.94192977    -0.33370
H1689       H  0.08913771  0.29035755  0.95011657     0.28000
H1690       H  0.23549707  0.26116514  0.07371936     0.27990
H1691       H  0.14076491  0.21862263  0.04644729     0.18590
H1692       H  0.19862043  0.29830168  0.95718611     0.18590
C1693       C  0.01840356  0.23468371  0.11720841    -0.07240
C1694       C  0.98360638  0.23576203  0.13365117    -0.18370
C1695       C  0.97811591  0.24887836  0.16985291     0.09960
C1696       C  0.00768664  0.26250284  0.19070084    -0.07160
C1697       C  0.04236089  0.26035510  0.17413946    -0.18400
C1698       C  0.04813994  0.24522431  0.13918379     0.09990
S1699       S  0.93222867  0.24952328  0.18718759    -0.33370
S1700       S  0.09466453  0.24212617  0.12300487    -0.33370
H1701       H  0.08828161  0.21489916  0.09663694     0.28000
H1702       H  0.93529739  0.28386293  0.20373506     0.27990
H1703       H  0.96011043  0.22899059  0.11740888     0.18590
H1704       H  0.06582585  0.26982845  0.18851142     0.18590
C1705       C  0.81604458  0.50752959  0.24681016    -0.07240
C1706       C  0.82377490  0.54006013  0.26570876    -0.18370
C1707       C  0.85799364  0.54639248  0.28171596     0.09960
C1708       C  0.88633068  0.51978055  0.27931128    -0.07160
C1709       C  0.87774016  0.48631819  0.26257823    -0.18400
C1710       C  0.84422122  0.48075123  0.24475580     0.09990
S1711       S  0.86357657  0.58907118  0.30550100    -0.33370
S1712       S  0.84014112  0.43935704  0.21846536    -0.33370
H1713       H  0.82089617  0.45535103  0.19015098     0.28000
H1714       H  0.89088075  0.57643665  0.32886016     0.27990
H1715       H  0.80253469  0.56063506  0.26862201     0.18590
H1716       H  0.89880346  0.46560098  0.25970004     0.18590
C1717       C  0.13352450  0.50236838  0.25922400    -0.07240
C1718       C  0.15158402  0.47492866  0.23832571    -0.18370
C1719       C  0.18902790  0.47489113  0.23118395     0.09960
C1720       C  0.21100096  0.50219529  0.24655083    -0.07160
C1721       C  0.19340108  0.52888775  0.26915219    -0.18400
C1722       C  0.15521522  0.52936615  0.27543403     0.09990
S1723       S  0.20580571  0.43959817  0.20052557    -0.33370
S1724       S  0.13572271  0.56642010  0.30178568    -0.33370
H1725       H  0.11038540  0.54500493  0.31999142     0.28000
H1726       H  0.24088685  0.43648663  0.21441372     0.27990
H1727       H  0.13589728  0.45344242  0.22579911     0.18590
H1728       H  0.20912999  0.55036410  0.28127323     0.18590
C1729       C  0.01528716  0.62988168  0.26337318    -0.07240
C1730       C  0.05054055  0.64370266  0.26760172    -0.18370
C1731       C  0.05829833  0.68072754  0.26112522     0.09960
C1732       C  0.03045285  0.70473639  0.24835644    -0.07160
C1733       C  0.99548905  0.69054232  0.24453777    -0.18400
C1734       C  0.98729059  0.65467252  0.25337118     0.09990
S1735       S  0.10487092  0.69393232  0.26794685    -0.33370
S1736       S  0.94024797  0.64085203  0.25110813    -0.33370
H1737       H  0.92487529  0.67459594  0.24209211     0.28000
H1738       H  0.10078425  0.73049648  0.25952454     0.27990
H1739       H  0.07253475  0.62528210  0.27453378     0.18590
H1740       H  0.97406926  0.70780650  0.23436967     0.18590
C1741       C  0.02278873  0.38316978  0.27486550    -0.07240
C1742       C  0.05185076  0.35793365  0.27124828    -0.18370
C1743       C  0.04737148  0.32232188  0.25745593     0.09960
C1744       C  0.01249831  0.31055201  0.24563112    -0.07160
C1745       C  0.98302638  0.33498200  0.25160247    -0.18400
C1746       C  0.98744786  0.37012118  0.26695076     0.09990
S1747       S  0.08863046  0.29514867  0.25481052    -0.33370
S1748       S  0.94685551  0.39745740  0.27356293    -0.33370
H1749       H  0.95779913  0.41140629  0.30749764     0.28000
H1750       H  0.07303958  0.26184073  0.24680188     0.27990
H1751       H  0.07918113  0.36669405  0.27752112     0.18590
H1752       H  0.95594674  0.32684877  0.24407075     0.18590
C1753       C  0.00556965  0.37750497  0.17920921    -0.07240
C1754       C  0.97097894  0.36537673  0.16889148    -0.18370
C1755       C  0.96770863  0.34027385  0.14071970     0.09960
C1756       C  0.99971469  0.32778041  0.12313795    -0.07160
C1757       C  0.03370070  0.33374342  0.13899461    -0.18400
C1758       C  0.03714228  0.35840857  0.16734150     0.09990
S1759       S  0.92253351  0.32888822  0.12579118    -0.33370
S1760       S  0.08250790  0.36830130  0.18338644    -0.33370
H1761       H  0.09978319  0.33694320  0.16872639     0.28000
H1762       H  0.93294844  0.29547682  0.10949707     0.27990
H1763       H  0.94645893  0.37816179  0.18001853     0.18590
H1764       H  0.05829656  0.32264925  0.12644577     0.18590
C1765       C  0.97238464  0.64915180  0.09498852    -0.07240
C1766       C  0.96663531  0.61466235  0.08031276    -0.18370
C1767       C  0.96727376  0.58465626  0.10258795     0.09960
C1768       C  0.97436220  0.59020794  0.14017624    -0.07160
C1769       C  0.97729206  0.62547441  0.15443317    -0.18400
C1770       C  0.97623275  0.65478764  0.13215533     0.09990
S1771       S  0.96101726  0.54041805  0.08153541    -0.33370
S1772       S  0.98263559  0.69875896  0.15197090    -0.33370
H1773       H  0.01518913  0.70442048  0.13267214     0.28000
H1774       H  0.94651564  0.55265705  0.04865892     0.27990
H1775       H  0.96431885  0.61111436  0.05115813     0.18590
H1776       H  0.98211960  0.63052456  0.18287967     0.18590
C1777       C  0.27823080  0.49420032  0.87643330    -0.07240
C1778       C  0.27352334  0.52738704  0.85846914    -0.18370
C1779       C  0.26204215  0.52915134  0.82155457     0.09960
C1780       C  0.25337207  0.49701942  0.80116210    -0.07160
C1781       C  0.25938551  0.46406568  0.81917458    -0.18400
C1782       C  0.27239929  0.46231264  0.85516583     0.09990
S1783       S  0.25627205  0.57394025  0.80362846    -0.33370
S1784       S  0.28062783  0.41775561  0.87290943    -0.33370
H1785       H  0.30620155  0.42893087  0.89890330     0.28000
H1786       H  0.26131363  0.56449107  0.76707214     0.27990
H1787       H  0.27650815  0.55241305  0.87395477     0.18590
H1788       H  0.25445211  0.43878711  0.80522800     0.18590
C1789       C  0.28334093  0.52707254  0.12602894    -0.07240
C1790       C  0.27009716  0.55434285  0.15046618    -0.18370
C1791       C  0.25913368  0.54701788  0.18600037     0.09960
C1792       C  0.26393960  0.51188413  0.19991398    -0.07160
C1793       C  0.28347067  0.48624523  0.17774612    -0.18400
C1794       C  0.29309655  0.49347670  0.14121260     0.09990
S1795       S  0.23772193  0.58399734  0.21125089    -0.33370
S1796       S  0.31916833  0.45979356  0.11614934    -0.33370
H1797       H  0.33618678  0.48464190  0.09333657     0.28000
H1798       H  0.25244612  0.57532205  0.24494363     0.27990
H1799       H  0.26422564  0.58121553  0.14045119     0.18590
H1800       H  0.29110479  0.46028432  0.18866073     0.18590
C1801       C  0.28337063  0.63577014  0.00512474    -0.07240
C1802       C  0.27881497  0.65384180  0.97211362    -0.18370
C1803       C  0.26650289  0.69064009  0.97116910     0.09960
C1804       C  0.25576946  0.70956800  0.00382195    -0.07160
C1805       C  0.26009642  0.69080776  0.03623535    -0.18400
C1806       C  0.27637122  0.65632290  0.03741938     0.09990
S1807       S  0.26230211  0.71028084  0.92701019    -0.33370
S1808       S  0.28532981  0.63861867  0.08187655    -0.33370
H1809       H  0.31154827  0.61271015  0.07001340     0.28000
H1810       H  0.26369868  0.74666342  0.93816143     0.27990
H1811       H  0.28279886  0.63873517  0.94686171     0.18590
H1812       H  0.25146691  0.70304032  0.06157858     0.18590
C1813       C  0.25941575  0.31355317  0.00147942    -0.07240
C1814       C  0.25730716  0.33545652  0.03301051    -0.18370
C1815       C  0.26706896  0.37218797  0.03294893     0.09960
C1816       C  0.27836772  0.38861335  0.00044705    -0.07160
C1817       C  0.28362825  0.36582380  0.96973878    -0.18400
C1818       C  0.27395355  0.32903260  0.96958971     0.09990
S1819       S  0.26324379  0.39666411  0.07537279    -0.33370
S1820       S  0.27861969  0.30481898  0.92680429    -0.33370
H1821       H  0.25281150  0.27819436  0.93353715     0.28000
H1822       H  0.27160480  0.43099574  0.06242198     0.27990
H1823       H  0.24773506  0.32386163  0.05804764     0.18590
H1824       H  0.29147482  0.37779322  0.94430154     0.18590
C1825       C  0.14849067  0.49555819  0.08522606    -0.07240
C1826       C  0.11990679  0.52116544  0.08952309    -0.18370
C1827       C  0.09194325  0.51663404  0.11447071     0.09960
C1828       C  0.09138826  0.48523823  0.13537095    -0.07160
C1829       C  0.12046131  0.46014605  0.13251115    -0.18400
C1830       C  0.14919425  0.46524801  0.10785972     0.09990
S1831       S  0.05877439  0.55281307  0.11931803    -0.33370
S1832       S  0.18471825  0.43167910  0.10535917    -0.33370
H1833       H  0.21248811  0.45717216  0.11022474     0.28000
H1834       H  0.05572533  0.55061972  0.15727263     0.27990
H1835       H  0.11934951  0.54540481  0.07334211     0.18590
H1836       H  0.12069433  0.43647063  0.14943544     0.18590
C1837       C  0.06469654  0.40558931  0.02471537    -0.07240
C1838       C  0.05154272  0.43331707  0.00267093    -0.18370
C1839       C  0.07527552  0.45572156  0.98424395     0.09960
C1840       C  0.11299421  0.45182185  0.98984348    -0.07160
C1841       C  0.12548446  0.42610472  0.01511918    -0.18400
C1842       C  0.10184161  0.40322920  0.03257932     0.09990
S1843       S  0.05662345  0.48470112  0.95040853    -0.33370
S1844       S  0.12069297  0.37079967  0.06359175    -0.33370
H1845       H  0.08881651  0.36848654  0.08482293     0.28000
H1846       H  0.01987715  0.48302406  0.96133127     0.27990
H1847       H  0.02284163  0.43480160  0.99653845     0.18590
H1848       H  0.15408063  0.42346486  0.02176414     0.18590
C1849       C  0.17391820  0.63200251  0.01669718    -0.07240
C1850       C  0.16605199  0.64707533  0.05096779    -0.18370
C1851       C  0.14824305  0.68034557  0.05390808     0.09960
C1852       C  0.13861179  0.69822212  0.02164494    -0.07160
C1853       C  0.15626975  0.68819934  0.98912969    -0.18400
C1854       C  0.17304987  0.65430693  0.98589609     0.09990
S1855       S  0.13157247  0.69374557  0.09851695    -0.33370
S1856       S  0.18863674  0.64003092  0.94118509    -0.33370
H1857       H  0.21599820  0.61626004  0.95329476     0.28000
H1858       H  0.12168569  0.72928048  0.08928927     0.27990
H1859       H  0.16940650  0.63115670  0.07514203     0.18590
H1860       H  0.15130109  0.70331893  0.96469442     0.18590
C1861       C  0.13332342  0.51312004  0.71622123    -0.07240
C1862       C  0.14450324  0.47877997  0.72850747    -0.18370
C1863       C  0.17970819  0.47232831  0.74290756     0.09960
C1864       C  0.20516687  0.50111573  0.74601075    -0.07160
C1865       C  0.19478755  0.53437737  0.73043715    -0.18400
C1866       C  0.16000063  0.54033572  0.71537475     0.09990
S1867       S  0.18860980  0.42713932  0.75900659    -0.33370
S1868       S  0.15042202  0.58418930  0.69664166    -0.33370
H1869       H  0.12032873  0.57316746  0.67599128     0.28000
H1870       H  0.22632569  0.42783614  0.75480816     0.27990
H1871       H  0.12451756  0.45753835  0.73010132     0.18590
H1872       H  0.21400254  0.55624671  0.72972771     0.18590
C1873       C  0.01135281  0.31720183  0.75017694    -0.07240
C1874       C  0.04282473  0.33241698  0.73436302    -0.18370
C1875       C  0.04242664  0.36767579  0.71972560     0.09960
C1876       C  0.00940990  0.38779736  0.71823457    -0.07160
C1877       C  0.97763835  0.37073049  0.73047869    -0.18400
C1878       C  0.97902885  0.33850000  0.75005819     0.09990
S1879       S  0.08505308  0.38642000  0.70544289    -0.33370
S1880       S  0.94051197  0.32820614  0.77834105    -0.33370
H1881       H  0.91924283  0.35935875  0.77174224     0.28000
H1882       H  0.06957749  0.41267464  0.68290028     0.27990
H1883       H  0.06806453  0.31685971  0.73396424     0.18590
H1884       H  0.95236233  0.38628698  0.73053788     0.18590
C1885       C  0.02390091  0.70950862  0.75739252    -0.07240
C1886       C  0.98958998  0.69284482  0.75368344    -0.18370
C1887       C  0.98609707  0.65706231  0.73916422     0.09960
C1888       C  0.01706324  0.63716927  0.72640185    -0.07160
C1889       C  0.05006802  0.65589862  0.72532718    -0.18160
C1890       C  0.05453430  0.68949873  0.74343237     0.09990
S1891       S  0.94152436  0.63744743  0.73820141    -0.33370
S1892       S  0.10055652  0.70277581  0.75223133    -0.33370
H1893       H  0.11708936  0.66823491  0.74837753     0.28000
H1894       H  0.95089293  0.60882271  0.71396361     0.27990
H1895       H  0.96526972  0.70762078  0.76236334     0.18590
H1896       H  0.07416075  0.64096361  0.71607075     0.18590
C1897       C  0.88729202  0.50097214  0.73331870    -0.07240
C1898       C  0.87432222  0.53248437  0.75141662    -0.18370
C1899       C  0.83807409  0.53573396  0.76463194     0.09960
C1900       C  0.81310423  0.50698553  0.75923106    -0.07160
C1901       C  0.82627236  0.47558938  0.74069919    -0.18400
C1902       C  0.86231438  0.47256326  0.72747300     0.09990
S1903       S  0.82543960  0.57628398  0.78985421    -0.33370
S1904       S  0.87579019  0.43046142  0.70516197    -0.33370
H1905       H  0.90626742  0.44434421  0.68701430     0.28000
H1906       H  0.85571673  0.59698595  0.78004114     0.27990
H1907       H  0.89367275  0.55340309  0.75817916     0.18590
H1908       H  0.80810030  0.45307498  0.73627530     0.18590
C1909       C  0.14503611  0.51359136  0.81227563    -0.07240
C1910       C  0.15655386  0.47927147  0.82406562    -0.18370
C1911       C  0.17685686  0.47574946  0.85512984     0.09960
C1912       C  0.18783142  0.50744514  0.87334773    -0.07160
C1913       C  0.18309918  0.54130133  0.85706486    -0.18400
C1914       C  0.16168517  0.54483943  0.82651928     0.09990
S1915       S  0.18100747  0.43088982  0.87332857    -0.33370
S1916       S  0.15138467  0.59032593  0.81244112    -0.33370
H1917       H  0.14654477  0.58087460  0.77592605     0.28000
H1918       H  0.15778904  0.43924166  0.90299441     0.27990
H1919       H  0.14401618  0.45500693  0.81324893     0.18590
H1920       H  0.19313657  0.56569100  0.87022332     0.18590
C1921       C  0.00037064  0.41317804  0.85748987    -0.07240
C1922       C  0.97968024  0.42182341  0.88827874    -0.18370
C1923       C  0.98150222  0.40005519  0.91812052     0.09960
C1924       C  0.00331069  0.36851591  0.91612640    -0.07160
C1925       C  0.02427937  0.35974685  0.88552670    -0.18400
C1926       C  0.02365437  0.38239109  0.85613208     0.09990
S1927       S  0.95737518  0.41386273  0.95887783    -0.33370
S1928       S  0.05416100  0.37134498  0.81886166    -0.33370
H1929       H  0.03544735  0.39146786  0.79302202     0.28000
H1930       H  0.93988831  0.44487670  0.94531108     0.27990
H1931       H  0.96442048  0.44707978  0.89002064     0.18590
H1932       H  0.04061529  0.33501424  0.88439309     0.18590
C1933       C  0.06733599  0.58050064  0.88423422    -0.07240
C1934       C  0.07720078  0.56938100  0.91903040    -0.18370
C1935       C  0.07370591  0.59304567  0.94888277     0.09960
C1936       C  0.06680986  0.62987175  0.94259354    -0.07160
C1937       C  0.06524778  0.64208861  0.90678392    -0.18400
C1938       C  0.06235726  0.61797494  0.87802301     0.09990
S1939       S  0.07245294  0.57453508  0.99374986    -0.33370
S1940       S  0.04767324  0.63776743  0.83614612    -0.33370
H1941       H  0.01359576  0.62075298  0.83739298     0.28000
H1942       H  0.10833399  0.56222617  0.99219006     0.27990
H1943       H  0.08476802  0.54168317  0.92320514     0.18590
H1944       H  0.06128678  0.67057335  0.90105710     0.18590
C1945       C  0.76664909  0.31530827  0.01126380    -0.07240
C1946       C  0.74472485  0.32934671  0.98306281    -0.18370
C1947       C  0.73434270  0.36662124  0.98128645     0.09960
C1948       C  0.74683458  0.39184160  0.00766709    -0.07160
C1949       C  0.76927906  0.37776019  0.03522355    -0.18400
C1950       C  0.78016028  0.34094845  0.03667390     0.09990
S1951       S  0.70641004  0.38010756  0.94395616    -0.33370
S1952       S  0.81279334  0.32809877  0.07053146    -0.33370
H1953       H  0.82052039  0.36302722  0.08403979     0.28000
H1954       H  0.68931955  0.40938498  0.96247660     0.27990
H1955       H  0.73588215  0.31110835  0.96169489     0.18590
H1956       H  0.78009848  0.39654781  0.05518594     0.18590
C1957       C  0.73262688  0.63652034  0.99882720    -0.07240
C1958       C  0.73115422  0.65793207  0.03101836    -0.18370
C1959       C  0.74385351  0.69427498  0.03266888     0.09960
C1960       C  0.76120492  0.70978571  0.00190734    -0.07160
C1961       C  0.76418813  0.68781568  0.97066628    -0.18400
C1962       C  0.74848348  0.65332283  0.96812141     0.09990
S1963       S  0.73959388  0.71746965  0.07604026    -0.33370
S1964       S  0.74941821  0.63257420  0.92380507    -0.33370
H1965       H  0.71291912  0.62169268  0.92664216     0.28000
H1966       H  0.74603014  0.75257869  0.06429134     0.27990
H1967       H  0.72158767  0.64565033  0.05572727     0.18590
H1968       H  0.77747172  0.69838732  0.94690622     0.18590
C1969       C  0.74255150  0.50723162  0.12097941    -0.07240
C1970       C  0.73573206  0.47624440  0.14154646    -0.18370
C1971       C  0.74712900  0.47282317  0.17789817     0.09960
C1972       C  0.76497475  0.50179508  0.19619493    -0.07160
C1973       C  0.77133319  0.53325127  0.17589438    -0.18400
C1974       C  0.76061083  0.53617629  0.13899890     0.09990
S1975       S  0.74328552  0.42894274  0.19814260    -0.33370
S1976       S  0.77371315  0.57624499  0.11538112    -0.33370
H1977       H  0.74250717  0.57756395  0.09360999     0.28000
H1978       H  0.71759020  0.41470066  0.17382423     0.27990
H1979       H  0.72423867  0.45292910  0.12774290     0.18590
H1980       H  0.78526842  0.55570992  0.18874826     0.18590
C1981       C  0.73433191  0.51985276  0.88156435    -0.07240
C1982       C  0.72968118  0.54884121  0.85779140    -0.18370
C1983       C  0.74238962  0.54729173  0.82172756     0.09960
C1984       C  0.76100270  0.51562841  0.80819491    -0.07160
C1985       C  0.76625775  0.48682039  0.83220051    -0.18400
C1986       C  0.75239410  0.48818170  0.86802026     0.09990
S1987       S  0.73542995  0.58820520  0.79632768    -0.33370
S1988       S  0.75967256  0.44914182  0.89554384    -0.33370
H1989       H  0.72280596  0.44764378  0.90586686     0.28000
H1990       H  0.75370986  0.57734658  0.76432100     0.27990
H1991       H  0.71674712  0.57370302  0.86783051     0.18590
H1992       H  0.78034751  0.46243002  0.82256696     0.18590
C1993       C  0.92880270  0.53509383  0.84336959    -0.07240
C1994       C  0.91481800  0.50269879  0.85656129    -0.18370
C1995       C  0.88339856  0.50195718  0.87750603     0.09960
C1996       C  0.86455292  0.53448357  0.88534617    -0.07160
C1997       C  0.87663985  0.56691433  0.87005796    -0.18400
C1998       C  0.90863341  0.56759143  0.84887923     0.09990
S1999       S  0.86986177  0.45857811  0.89431968    -0.33370
S2000       S  0.92281466  0.61078994  0.83201271    -0.33370
H2001       H  0.95310620  0.59874712  0.81148277     0.28000
H2002       H  0.83387304  0.46856684  0.90314516     0.27990
H2003       H  0.92837114  0.47728737  0.85089060     0.18590
H2004       H  0.86238225  0.59218656  0.87653454     0.18590
C2005       C  0.88919884  0.51732573  0.16483541    -0.07240
C2006       C  0.87860136  0.48541221  0.14734724    -0.18370
C2007       C  0.86343114  0.48624415  0.11317728     0.09960
C2008       C  0.86503462  0.51890142  0.09358078    -0.07160
C2009       C  0.87307006  0.55129771  0.11180325    -0.18400
C2010       C  0.88239349  0.55104141  0.14828726     0.09990
S2011       S  0.84166651  0.44555096  0.09622670    -0.33370
S2012       S  0.88433314  0.59422044  0.17192936    -0.33370
H2013       H  0.87139688  0.58074776  0.20502703     0.28000
H2014       H  0.84422011  0.42531151  0.12806645     0.27990
H2015       H  0.88330177  0.45955454  0.15989073     0.18590
H2016       H  0.86973375  0.57695545  0.09827396     0.18590
C2017       C  0.88777869  0.35453320  0.99479722    -0.07240
C2018       C  0.89020441  0.37978852  0.02382290    -0.18370
C2019       C  0.88473193  0.41609887  0.01687953     0.09960
C2020       C  0.86267695  0.42561108  0.98784414    -0.07160
C2021       C  0.85094819  0.39853009  0.96338186    -0.18400
C2022       C  0.86618656  0.36353337  0.96474021     0.09990
S2023       S  0.91163747  0.44873694  0.04158583    -0.33370
S2024       S  0.85886117  0.33262963  0.92735074    -0.33370
H2025       H  0.89613433  0.32835959  0.91902005     0.28000
H2026       H  0.91266772  0.47429085  0.01383684     0.27990
H2027       H  0.90626810  0.37310641  0.04743963     0.18590
H2028       H  0.83164767  0.40514126  0.94235906     0.18590
C2029       C  0.93053228  0.67816696  0.96935437    -0.07240
C2030       C  0.89938676  0.68343376  0.99128656    -0.18370
C2031       C  0.87718407  0.65444662  0.99951244     0.09960
C2032       C  0.88520208  0.62015121  0.98385973    -0.07160
C2033       C  0.91320157  0.61605999  0.95806151    -0.18400
C2034       C  0.93574550  0.64500312  0.95036870     0.09990
S2035       S  0.84061550  0.66233923  0.03190535    -0.33370
S2036       S  0.97187618  0.63792595  0.91759643    -0.33370
H2037       H  0.97951029  0.67489254  0.91336759     0.28000
H2038       H  0.83966852  0.62688022  0.04514947     0.27990
H2039       H  0.89505772  0.70876591  0.00610049     0.18590
H2040       H  0.91741176  0.59030682  0.94383564     0.18590
C2041       C  0.24744023  0.52055360  0.61987180    -0.07240
C2042       C  0.23519725  0.48841465  0.63544957    -0.18370
C2043       C  0.24492157  0.47834743  0.67106141     0.09960
C2044       C  0.26523707  0.50191482  0.69425163    -0.07160
C2045       C  0.27618561  0.53464301  0.67904536    -0.18400
C2046       C  0.26890168  0.54351867  0.64266366     0.09990
S2047       S  0.23598438  0.43239458  0.68222074    -0.33370
S2048       S  0.28733911  0.58575047  0.62829462    -0.33370
H2049       H  0.30883438  0.57119258  0.59993609     0.28000
H2050       H  0.27309258  0.42330538  0.68431980     0.27990
H2051       H  0.22071665  0.46915523  0.61856159     0.18590
H2052       H  0.29097404  0.55383205  0.69553668     0.18590
C2053       C  0.24246421  0.51536845  0.37960594    -0.07240
C2054       C  0.23898027  0.48096173  0.36311994    -0.18370
C2055       C  0.24911001  0.47425741  0.32627986     0.09960
C2056       C  0.26536418  0.50215730  0.30535067    -0.07160
C2057       C  0.26799650  0.53652812  0.32200154    -0.18400
C2058       C  0.25549665  0.54369115  0.35755687     0.09990
S2059       S  0.24156000  0.42894750  0.30933551    -0.33370
S2060       S  0.25747160  0.59017223  0.37361442    -0.33370
H2061       H  0.22843934  0.58743560  0.39853017     0.28000
H2062       H  0.24754944  0.43620213  0.27306710     0.27990
H2063       H  0.22980178  0.45870003  0.37943042     0.18590
H2064       H  0.27877700  0.55869051  0.30655311     0.18590
C2065       C  0.22711514  0.63851640  0.49704434    -0.07240
C2066       C  0.22237733  0.66155116  0.46741565    -0.18370
C2067       C  0.23403042  0.69793414  0.46803741     0.09960
C2068       C  0.25396628  0.71189090  0.49828401    -0.07160
C2069       C  0.25482529  0.69014589  0.52929429    -0.18400
C2070       C  0.24021847  0.65480482  0.52927092     0.09990
S2071       S  0.22248535  0.72371088  0.42864231    -0.33370
S2072       S  0.23944769  0.63118640  0.57108082    -0.33370
H2073       H  0.21034702  0.60859932  0.56164311     0.28000
H2074       H  0.24808625  0.75064231  0.43409359     0.27990
H2075       H  0.21176072  0.65023079  0.44235253     0.18590
H2076       H  0.26692696  0.70084848  0.55391048     0.18590
C2077       C  0.24118623  0.39477875  0.52189588    -0.07240
C2078       C  0.23745391  0.37862909  0.48715781    -0.18370
C2079       C  0.24626544  0.34166028  0.47966399     0.09960
C2080       C  0.25974315  0.31890038  0.50759299    -0.07160
C2081       C  0.26211178  0.33471530  0.54258235    -0.18400
C2082       C  0.25260996  0.37157915  0.55016592     0.09990
S2083       S  0.24018935  0.32684660  0.43324052    -0.33370
S2084       S  0.25461679  0.38810507  0.59656147    -0.33370
H2085       H  0.26931023  0.35648963  0.61175210     0.28000
H2086       H  0.25800858  0.29353125  0.43539937     0.27990
H2087       H  0.22882900  0.39540484  0.46492588     0.18590
H2088       H  0.27142810  0.31783064  0.56438222     0.18590
C2089       C  0.51224853  0.63421974  0.76868016    -0.07240
C2090       C  0.54052552  0.65490286  0.75317824    -0.18370
C2091       C  0.53421467  0.68810631  0.73618143     0.09960
C2092       C  0.49944893  0.70499702  0.73815294    -0.07160
C2093       C  0.47218834  0.68694489  0.75810036    -0.18400
C2094       C  0.47820846  0.65218390  0.77312498     0.09990
S2095       S  0.57177179  0.70614671  0.71071110    -0.33370
S2096       S  0.44257224  0.63369586  0.80015714    -0.33370
H2097       H  0.46535973  0.60997882  0.81929692     0.28000
H2098       H  0.56599699  0.74241439  0.72102813     0.27990
H2099       H  0.56738577  0.64262154  0.74986835     0.18590
H2100       H  0.44597430  0.70013849  0.76232138     0.18590
C2101       C  0.63027419  0.51885649  0.77261240    -0.07240
C2102       C  0.64811567  0.48585265  0.78019104    -0.18370
C2103       C  0.68572024  0.47994073  0.77195160     0.09960
C2104       C  0.70572372  0.50637084  0.75237568    -0.07160
C2105       C  0.68744775  0.53898426  0.74491176    -0.18400
C2106       C  0.65188843  0.54657091  0.75769057     0.09990
S2107       S  0.70520302  0.43742689  0.78636172    -0.33370
S2108       S  0.63565782  0.59288804  0.75468997    -0.33370
H2109       H  0.60966060  0.59057263  0.78278658     0.28000
H2110       H  0.74009152  0.44103704  0.77125751     0.27990
H2111       H  0.63251229  0.46408703  0.79160900     0.18590
H2112       H  0.70185050  0.55992678  0.73073567     0.18590
C2113       C  0.31131053  0.49334617  0.74929122    -0.07240
C2114       C  0.33105461  0.52522175  0.75624353    -0.18370
C2115       C  0.36567372  0.52449925  0.77277763     0.09960
C2116       C  0.38173460  0.49142830  0.78369717    -0.07160
C2117       C  0.35963601  0.46042020  0.78104051    -0.18400
C2118       C  0.32627037  0.46055376  0.76229330     0.09990
S2119       S  0.38914040  0.56646323  0.77658560    -0.33370
S2120       S  0.30498181  0.41780968  0.75225545    -0.33370
H2121       H  0.32620750  0.39654187  0.77551910     0.28000
H2122       H  0.40843093  0.55664001  0.80778656     0.27990
H2123       H  0.31990209  0.55111540  0.74848270     0.18590
H2124       H  0.37137930  0.43459773  0.78868679     0.18590
C2125       C  0.51437483  0.38288311  0.77451090    -0.07240
C2126       C  0.48233588  0.36270699  0.77727936    -0.18370
C2127       C  0.47806507  0.32915786  0.75916380     0.09960
C2128       C  0.50818752  0.31199661  0.74066070    -0.07160
C2129       C  0.54140362  0.33076281  0.74077778    -0.18400
C2130       C  0.54450103  0.36590691  0.75650814     0.09990
S2131       S  0.43172525  0.31336434  0.75764806    -0.33370
S2132       S  0.58669973  0.38930609  0.74994188    -0.33370
H2133       H  0.58036941  0.41579832  0.77731093     0.28000
H2134       H  0.43900885  0.28026862  0.74003253     0.27990
H2135       H  0.45829298  0.37586393  0.78911520     0.18590
H2136       H  0.56510378  0.31822894  0.72778259     0.18590
C2137       C  0.40756230  0.53670007  0.68070731    -0.07240
C2138       C  0.38515413  0.50641731  0.68305003    -0.18370
C2139       C  0.36461251  0.49500128  0.65359408     0.09960
C2140       C  0.36465271  0.51606119  0.62198892    -0.07160
C2141       C  0.38159365  0.55021812  0.62299425    -0.18400
C2142       C  0.40265469  0.56082079  0.65244997     0.09990
S2143       S  0.34599112  0.45017184  0.65605777    -0.33370
S2144       S  0.42570265  0.60357181  0.65170495    -0.33370
H2145       H  0.43683194  0.60307632  0.68815913     0.28000
H2146       H  0.31085087  0.46116628  0.64679316     0.27990
H2147       H  0.38859026  0.48787537  0.70509137     0.18590
H2148       H  0.37975996  0.56825637  0.60024123     0.18590
C2149       C  0.78459510  0.62778527  0.53358507    -0.07240
C2150       C  0.80221574  0.65057413  0.50909682    -0.18370
C2151       C  0.80016238  0.68823294  0.51734148     0.09960
C2152       C  0.76503771  0.70332438  0.52613059    -0.07160
C2153       C  0.74553879  0.68110717  0.54973293    -0.18400
C2154       C  0.75904424  0.64604354  0.55803936     0.09990
S2155       S  0.83337546  0.69473089  0.55302249    -0.33370
S2156       S  0.74835313  0.62942828  0.60249424    -0.33370
H2157       H  0.72809437  0.65981252  0.61525435     0.28000
H2158       H  0.81212380  0.71872549  0.57493592     0.27990
H2159       H  0.82480034  0.63967099  0.49303290     0.18590
H2160       H  0.72209884  0.69172849  0.56431511     0.18590
C2161       C  0.78693549  0.49444142  0.62963799    -0.07240
C2162       C  0.76452975  0.46757059  0.64421933    -0.18370
C2163       C  0.75008889  0.47017092  0.67994376     0.09960
C2164       C  0.75802385  0.50051363  0.70263734    -0.07160
C2165       C  0.78104093  0.52702388  0.68812775    -0.18400
C2166       C  0.79636798  0.52363192  0.65303577     0.09990
S2167       S  0.72041765  0.43504439  0.69520002    -0.33370
S2168       S  0.82589317  0.55919377  0.63852476    -0.33370
H2169       H  0.84287731  0.53860415  0.61050116     0.28000
H2170       H  0.72240974  0.41282106  0.66377355     0.27990
H2171       H  0.75545644  0.44607258  0.62616517     0.18590
H2172       H  0.78760453  0.55064384  0.70459321     0.18590
C2173       C  0.75769248  0.31001035  0.49595904    -0.07240
C2174       C  0.77921640  0.32554704  0.46854618    -0.18370
C2175       C  0.79304286  0.36105255  0.47168538     0.09960
C2176       C  0.78506857  0.38333549  0.50261115    -0.07160
C2177       C  0.76431500  0.36756973  0.53046059    -0.18400
C2178       C  0.75146318  0.33150051  0.52789308     0.09990
S2179       S  0.81804696  0.37788789  0.43342039    -0.33370
S2180       S  0.72717368  0.31471593  0.56649441    -0.33370
H2181       H  0.74045176  0.27900043  0.56320293     0.28000
H2182       H  0.83627054  0.40513368  0.45300860     0.27990
H2183       H  0.78483686  0.30995789  0.44389268     0.18590
H2184       H  0.75620102  0.38427216  0.55375165     0.18590
C2185       C  0.78859927  0.49732729  0.37818673    -0.07240
C2186       C  0.79727451  0.46769527  0.35508452    -0.18370
C2187       C  0.78578030  0.46549424  0.31874704     0.09960
C2188       C  0.76427387  0.49402857  0.30359803    -0.07160
C2189       C  0.75813694  0.52508211  0.32599457    -0.18400
C2190       C  0.77093929  0.52735900  0.36220447     0.09990
S2191       S  0.79775838  0.42334004  0.29585893    -0.33370
S2192       S  0.76403138  0.56938670  0.38693670    -0.33370
H2193       H  0.79332924  0.56426950  0.41068821     0.28000
H2194       H  0.77932115  0.42982979  0.26376220     0.27990
H2195       H  0.81030025  0.44408179  0.36669267     0.18590
H2196       H  0.74377160  0.54816769  0.31494328     0.18590
C2197       C  0.66233386  0.52268081  0.60566947    -0.07240
C2198       C  0.65308267  0.48662833  0.61200143    -0.18370
C2199       C  0.63634230  0.47736536  0.64447811     0.09960
C2200       C  0.62627425  0.50501468  0.66921810    -0.07160
C2201       C  0.64251740  0.53874226  0.66646015    -0.18400
C2202       C  0.65957550  0.54828752  0.63435854     0.09990
S2203       S  0.62643391  0.43078587  0.65313606    -0.33370
S2204       S  0.67314167  0.59434824  0.62934608    -0.33370
H2205       H  0.67113336  0.60463959  0.66628555     0.28000
H2206       H  0.62342994  0.43580975  0.69101770     0.27990
H2207       H  0.65914126  0.46581295  0.59192940     0.18590
H2208       H  0.63630406  0.55972412  0.68635778     0.18590
C2209       C  0.63332705  0.77385847  0.52186734    -0.07240
C2210       C  0.65146622  0.76824345  0.48816236    -0.18370
C2211       C  0.68890512  0.75706295  0.48575886     0.09960
C2212       C  0.70945209  0.74998015  0.51766841    -0.07160
C2213       C  0.69078400  0.75462517  0.55084870    -0.18400
C2214       C  0.65477177  0.76813310  0.55336790     0.09990
S2215       S  0.70811900  0.75070899  0.44088005    -0.33370
S2216       S  0.63818263  0.77875188  0.59851189    -0.33370
H2217       H  0.61862974  0.80950840  0.58724135     0.28000
H2218       H  0.73829597  0.72934996  0.45066954     0.27990
H2219       H  0.63604096  0.77093569  0.46341566     0.18590
H2220       H  0.70506269  0.74960773  0.57582019     0.18590
C2221       C  0.49267631  0.75502408  0.68728147    -0.07240
C2222       C  0.51857954  0.77882224  0.67253513    -0.18370
C2223       C  0.51660682  0.79164262  0.63686459     0.09960
C2224       C  0.49051009  0.77789657  0.61264844    -0.07160
C2225       C  0.46458096  0.75387784  0.62696205    -0.18400
C2226       C  0.46497872  0.74291549  0.66364677     0.09990
S2227       S  0.55016286  0.82364571  0.62292434    -0.33370
S2228       S  0.43058144  0.71242956  0.67951597    -0.33370
H2229       H  0.41087983  0.70996178  0.64701365     0.28000
H2230       H  0.52719889  0.84130468  0.59835094     0.27990
H2231       H  0.54147335  0.78726567  0.68836711     0.18590
H2232       H  0.44531488  0.74164836  0.60849998     0.18590
C2233       C  0.38793894  0.77399539  0.49067667    -0.07240
C2234       C  0.36822847  0.75856938  0.46165115    -0.18370
C2235       C  0.33272795  0.74565777  0.46561706     0.09960
C2236       C  0.31315175  0.75244095  0.49823704    -0.07160
C2237       C  0.33226978  0.76897919  0.52734000    -0.18400
C2238       C  0.36936297  0.77885722  0.52424748     0.09990
S2239       S  0.31430201  0.71900868  0.42882439    -0.33370
S2240       S  0.39112844  0.79704571  0.56403709    -0.33370
H2241       H  0.42529787  0.78110132  0.55659896     0.28000
H2242       H  0.34718233  0.71223301  0.40984069     0.27990
H2243       H  0.38208737  0.75389500  0.43587764     0.18590
H2244       H  0.31812036  0.77422134  0.55280778     0.18590
C2245       C  0.50014002  0.79256475  0.36695949    -0.07240
C2246       C  0.46890386  0.79684879  0.34545362    -0.18370
C2247       C  0.46730487  0.78289105  0.30980148     0.09960
C2248       C  0.49848507  0.76694812  0.29277862    -0.07160
C2249       C  0.53128890  0.76740364  0.31253704    -0.18400
C2250       C  0.53245559  0.78019336  0.34901588     0.09990
S2251       S  0.42318474  0.78148882  0.28944794    -0.33370
S2252       S  0.57546384  0.77779399  0.37197247    -0.33370
H2253       H  0.56717770  0.80628046  0.39671050     0.28000
H2254       H  0.42001002  0.74430685  0.29646597     0.27990
H2255       H  0.44364663  0.80583697  0.35844578     0.18590
H2256       H  0.55606061  0.75683811  0.30002083     0.18590
C2257       C  0.43439638  0.63745007  0.46340687    -0.07240
C2258       C  0.40083383  0.65359704  0.47269518    -0.18370
C2259       C  0.37452046  0.63397613  0.49055875     0.09960
C2260       C  0.38103456  0.59710888  0.49717137    -0.07160
C2261       C  0.41319112  0.58001142  0.48451883    -0.18400
C2262       C  0.44035811  0.60004295  0.46814134     0.09990
S2263       S  0.33454671  0.65798570  0.50684251    -0.33370
S2264       S  0.48248974  0.57698079  0.45570839    -0.33370
H2265       H  0.49561688  0.60370409  0.43252064     0.28000
H2266       H  0.32813692  0.63587770  0.53682254     0.27990
H2267       H  0.39662379  0.68252688  0.46977423     0.18590
H2268       H  0.41724517  0.55107827  0.48768227     0.18590
C2269       C  0.50966178  0.64208134  0.57999763    -0.07240
C2270       C  0.53379877  0.64331979  0.60877431    -0.18370
C2271       C  0.54275670  0.61193197  0.62615093     0.09960
C2272       C  0.52504798  0.57938102  0.61632580    -0.07160
C2273       C  0.49599889  0.58015252  0.59206588    -0.18400
C2274       C  0.48690172  0.61235953  0.57544077     0.09990
S2275       S  0.57831990  0.61500218  0.65913165    -0.33370
S2276       S  0.44263222  0.61720252  0.55620794    -0.33370
H2277       H  0.44192518  0.65537146  0.55673475     0.28000
H2278       H  0.59161909  0.58117308  0.64757537     0.27990
H2279       H  0.54871521  0.66772531  0.61517130     0.18590
H2280       H  0.47840490  0.55694625  0.58890744     0.18590
C2281       C  0.63212648  0.67020712  0.49853494    -0.07240
C2282       C  0.65751959  0.66629913  0.47004633    -0.18370
C2283       C  0.68915789  0.64520611  0.47493733     0.09960
C2284       C  0.69265554  0.62571858  0.50725878    -0.07160
C2285       C  0.67064920  0.63499895  0.53686013    -0.18400
C2286       C  0.64103554  0.65753576  0.53309355     0.09990
S2287       S  0.72465858  0.64584624  0.44096473    -0.33370
S2288       S  0.61400681  0.66552509  0.57302163    -0.33370
H2289       H  0.61270316  0.70281662  0.56756110     0.28000
H2290       H  0.75077167  0.62618472  0.46032027     0.27990
H2291       H  0.65208800  0.67821289  0.44398452     0.18590
H2292       H  0.67462603  0.62227221  0.56255419     0.18590
C2293       C  0.63522741  0.48622916  0.23298492    -0.07240
C2294       C  0.65475840  0.45741075  0.24901500    -0.18370
C2295       C  0.69026980  0.46092891  0.26262956     0.09960
C2296       C  0.71064710  0.49230249  0.25554297    -0.07160
C2297       C  0.69233367  0.52061466  0.23731007    -0.18400
C2298       C  0.65508704  0.51833676  0.22715182     0.09990
S2299       S  0.70836114  0.42461838  0.28943841    -0.33370
S2300       S  0.63437684  0.55735374  0.20741122    -0.33370
H2301       H  0.61089963  0.56222157  0.23748379     0.28000
H2302       H  0.67995897  0.39986122  0.28460251     0.27990
H2303       H  0.64128276  0.43195925  0.25310022     0.18590
H2304       H  0.70696881  0.54518442  0.23168242     0.18590
C2305       C  0.39063491  0.51093527  0.22990127    -0.07240
C2306       C  0.37824015  0.47730558  0.24195833    -0.18370
C2307       C  0.34201329  0.47278003  0.25415000     0.09960
C2308       C  0.31720509  0.50261548  0.25565495    -0.07160
C2309       C  0.32989417  0.53615697  0.24357697    -0.18400
C2310       C  0.36542231  0.54031862  0.23003676     0.09990
S2311       S  0.32948677  0.42862778  0.26889351    -0.33370
S2312       S  0.37801435  0.58488325  0.21549798    -0.33370
H2313       H  0.40747394  0.57317551  0.19336845     0.28000
H2314       H  0.30202197  0.42544688  0.24279670     0.27990
H2315       H  0.39749106  0.45491398  0.24400944     0.18590
H2316       H  0.31187876  0.55952727  0.24434582     0.18590
C2317       C  0.50999210  0.39023735  0.22290547    -0.07240
C2318       C  0.54275454  0.37507174  0.23565306    -0.18370
C2319       C  0.54464898  0.34068078  0.25121291     0.09960
C2320       C  0.51459967  0.31731526  0.24903716    -0.07160
C2321       C  0.48200212  0.33149970  0.23427324    -0.18400
C2322       C  0.47911654  0.36775356  0.22251943     0.09990
S2323       S  0.58567556  0.32819282  0.27464477    -0.33370
S2324       S  0.43506487  0.38429902  0.20872631    -0.33370
H2325       H  0.44784186  0.41502313  0.19088187     0.28000
H2326       H  0.60121476  0.36282238  0.27649963     0.27990
H2327       H  0.56646139  0.39188315  0.23714452     0.18590
H2328       H  0.45837430  0.31438399  0.23241744     0.18590
C2329       C  0.50122685  0.63833986  0.22305022    -0.07240
C2330       C  0.47007881  0.65966527  0.21665447    -0.18370
C2331       C  0.46791040  0.69665209  0.22667242     0.09960
C2332       C  0.49800728  0.71402124  0.24321920    -0.07160
C2333       C  0.53042177  0.69347457  0.24640214    -0.18400
C2334       C  0.53248237  0.65645590  0.23586131     0.09990
S2335       S  0.42481132  0.71941326  0.22110349    -0.33370
S2336       S  0.57516955  0.63309465  0.24158940    -0.33370
H2337       H  0.56875122  0.60787900  0.21336895     0.28000
H2338       H  0.41015583  0.69460375  0.19588103     0.27990
H2339       H  0.44565456  0.64611783  0.20767651     0.18590
H2340       H  0.55449871  0.70632660  0.25706976     0.18590
C2341       C  0.42730548  0.52904469  0.36890466    -0.07240
C2342       C  0.41203865  0.49488059  0.37478707    -0.18370
C2343       C  0.38033612  0.49169675  0.39552135     0.09960
C2344       C  0.36552017  0.52286015  0.41267844    -0.07160
C2345       C  0.37885359  0.55710462  0.40458561    -0.18400
C2346       C  0.40949819  0.56067442  0.38268369     0.09990
S2347       S  0.35808394  0.44842140  0.39623593    -0.33370
S2348       S  0.42472756  0.60617748  0.37451864    -0.33370
H2349       H  0.46213624  0.59784684  0.37634764     0.28000
H2350       H  0.32347723  0.46191989  0.40677349     0.27990
H2351       H  0.42399179  0.47078851  0.36193981     0.18590
H2352       H  0.36638982  0.58120689  0.41695818     0.18590
C2353       C  0.54896677  0.61504038  0.33741213    -0.07240
C2354       C  0.52938435  0.64571335  0.32686465    -0.18370
C2355       C  0.52671865  0.67556475  0.35049693     0.09960
C2356       C  0.55135985  0.67817234  0.37967272    -0.07160
C2357       C  0.57810674  0.65117261  0.38348024    -0.18400
C2358       C  0.57159048  0.61720943  0.36809457     0.09990
S2359       S  0.48459073  0.70110521  0.35042996    -0.33370
S2360       S  0.58190110  0.57792623  0.39487204    -0.33370
H2361       H  0.59450132  0.59627443  0.42604844     0.28000
H2362       H  0.47238460  0.68972830  0.31603003     0.27990
H2363       H  0.50968238  0.64286494  0.30541039     0.18590
H2364       H  0.59612884  0.65297018  0.40658952     0.18590
C2365       C  0.62990136  0.51242903  0.33420800    -0.07240
C2366       C  0.64424713  0.54678237  0.34056989    -0.18370
C2367       C  0.66346260  0.55336848  0.37250190     0.09960
C2368       C  0.67052287  0.52416474  0.39563918    -0.07160
C2369       C  0.66442385  0.48878726  0.38343546    -0.18400
C2370       C  0.64376611  0.48251148  0.35291744     0.09990
S2371       S  0.67280360  0.59963444  0.38425885    -0.33370
S2372       S  0.62888839  0.43677694  0.34461824    -0.33370
H2373       H  0.61513724  0.44329217  0.31009645     0.28000
H2374       H  0.66552271  0.59566834  0.42138791     0.27990
H2375       H  0.63427287  0.56959095  0.32521470     0.18590
H2376       H  0.67229692  0.46601768  0.39965967     0.18590
C2377       C  0.52208104  0.23211949  0.61306265    -0.07240
C2378       C  0.48981321  0.25035063  0.62415463    -0.18370
C2379       C  0.48537789  0.26636208  0.65923485     0.09960
C2380       C  0.51309689  0.26285749  0.68605468    -0.07160
C2381       C  0.54523995  0.24418755  0.67477928    -0.18400
C2382       C  0.54976668  0.22879304  0.63951385     0.09990
S2383       S  0.44337859  0.29101454  0.66677367    -0.33370
S2384       S  0.59113324  0.20342871  0.63068093    -0.33370
H2385       H  0.57592362  0.18009556  0.60441769     0.28000
H2386       H  0.45958787  0.31890921  0.68666896     0.27990
H2387       H  0.46863006  0.25458568  0.60430391     0.18590
H2388       H  0.56690213  0.24054950  0.69420637     0.18590
C2389       C  0.50479687  0.23367726  0.36717912    -0.07240
C2390       C  0.53983507  0.23472541  0.35154530    -0.18370
C2391       C  0.54567814  0.24728979  0.31570134     0.09960
C2392       C  0.51635045  0.26383245  0.29612868    -0.07160
C2393       C  0.48161326  0.26177351  0.31193601    -0.18400
C2394       C  0.47552084  0.24336600  0.34436329     0.09990
S2395       S  0.59160216  0.24215271  0.29850854    -0.33370
S2396       S  0.42929463  0.23229242  0.35529835    -0.33370
H2397       H  0.43824184  0.20823116  0.38312968     0.28000
H2398       H  0.58487936  0.25363082  0.26331454     0.27990
H2399       H  0.56309827  0.22753038  0.36795539     0.18590
H2400       H  0.45837910  0.27253337  0.29763370     0.18590
C2401       C  0.38822274  0.25274561  0.48807956    -0.07240
C2402       C  0.36931226  0.23876411  0.51808490    -0.18370
C2403       C  0.33189852  0.24749629  0.52507065     0.09960
C2404       C  0.31213497  0.27048920  0.50123506    -0.07160
C2405       C  0.33148977  0.28536207  0.47253247    -0.18400
C2406       C  0.36788339  0.27616535  0.46498312     0.09990
S2407       S  0.31242046  0.23066844  0.56639730    -0.33370
S2408       S  0.38541985  0.29476764  0.42365897    -0.33370
H2409       H  0.40755978  0.26441279  0.41656061     0.28000
H2410       H  0.28115669  0.25300002  0.56725497     0.27990
H2411       H  0.38409638  0.22227489  0.53716349     0.18590
H2412       H  0.31749105  0.30333526  0.45426518     0.18590
C2413       C  0.62869287  0.23954758  0.48521608    -0.07240
C2414       C  0.64493310  0.26198241  0.45914402    -0.18370
C2415       C  0.68131605  0.27397373  0.46164060     0.09960
C2416       C  0.70368926  0.26350097  0.49091058    -0.07160
C2417       C  0.68717230  0.24215887  0.51783618    -0.18400
C2418       C  0.65103781  0.22920109  0.51456347     0.09990
S2419       S  0.69890543  0.29930998  0.42437621    -0.33370
S2420       S  0.63546218  0.19861041  0.54831754    -0.33370
H2421       H  0.61446795  0.17780310  0.52419815     0.28000
H2422       H  0.70764502  0.32930319  0.44646480     0.27990
H2423       H  0.62855471  0.27130876  0.43679671     0.18590
H2424       H  0.70353298  0.23292661  0.54022936     0.18590
C2425       C  0.55367434  0.37382846  0.42310682    -0.07240
C2426       C  0.54806012  0.41015854  0.43325309    -0.18370
C2427       C  0.53799488  0.43524558  0.40745836     0.09960
C2428       C  0.53402766  0.42310823  0.37110904    -0.07160
C2429       C  0.54412570  0.38767878  0.36067704    -0.18400
C2430       C  0.55486779  0.36313781  0.38642587     0.09990
S2431       S  0.52887523  0.48169880  0.42195995    -0.33370
S2432       S  0.56924701  0.31847788  0.37141290    -0.33370
H2433       H  0.58861066  0.31031514  0.40301549     0.28000
H2434       H  0.54029688  0.47832752  0.45808168     0.27990
H2435       H  0.54771650  0.41805309  0.46171642     0.18590
H2436       H  0.54376768  0.37917228  0.33235113     0.18590
C2437       C  0.43051539  0.36782237  0.48803716    -0.07240
C2438       C  0.40359155  0.36082785  0.51368414    -0.18370
C2439       C  0.37543044  0.38575217  0.52037068     0.09960
C2440       C  0.37397233  0.41780942  0.49982070    -0.07160
C2441       C  0.40049226  0.42368473  0.47315886    -0.18400
C2442       C  0.42772392  0.39812109  0.46588252     0.09990
S2443       S  0.34529081  0.37793987  0.55831124    -0.33370
S2444       S  0.45690075  0.40515943  0.42737535    -0.33370
H2445       H  0.46518404  0.36842209  0.42006747     0.28000
H2446       H  0.35444401  0.34116366  0.56296350     0.27990
H2447       H  0.40590662  0.33667889  0.52983390     0.18590
H2448       H  0.40026666  0.44846815  0.45801936     0.18590
C2449       C  0.49040084  0.35128760  0.60239350    -0.07240
C2450       C  0.46050900  0.37341346  0.59376749    -0.18370
C2451       C  0.45010655  0.40197705  0.61659853     0.09960
C2452       C  0.46685041  0.40482610  0.65060809    -0.07160
C2453       C  0.49142113  0.37811075  0.66199129    -0.18400
C2454       C  0.50625232  0.35374889  0.63689078     0.09990
S2455       S  0.42141701  0.43675332  0.59746460    -0.33370
S2456       S  0.55005984  0.33407758  0.64754947    -0.33370
H2457       H  0.56722006  0.34640461  0.61592162     0.28000
H2458       H  0.42839389  0.46474386  0.62254501     0.27990
H2459       H  0.44899961  0.37198101  0.56700044     0.18590
H2460       H  0.50506803  0.38137989  0.68779798     0.18590
C2461       C  0.63588572  0.34941177  0.52402485    -0.07240
C2462       C  0.64195952  0.35327797  0.48666521    -0.18370
C2463       C  0.65527096  0.38542248  0.47326262     0.09960
C2464       C  0.66526718  0.41264386  0.49820532    -0.07160
C2465       C  0.66675442  0.40496906  0.53544580    -0.18400
C2466       C  0.65173704  0.37334915  0.54861945     0.09990
S2467       S  0.65498035  0.39267969  0.42495064    -0.33370
S2468       S  0.65082188  0.36557768  0.59652101    -0.33370
H2469       H  0.64530445  0.32801375  0.59355517     0.28000
H2470       H  0.63987049  0.35934029  0.41438207     0.27990
H2471       H  0.62984020  0.33416904  0.46788322     0.18590
H2472       H  0.67907101  0.42385740  0.55418764     0.18590
loop_ 
_geom_bond_atom_site_label_1 
_geom_bond_atom_site_label_2 
_geom_bond_distance 
_geom_bond_site_symmetry_2 
_ccdc_geom_bond_type 
O1            C9   1.251       .  A
O1          Co21   1.949       .  S
O2           C10   1.265       .  A
O2          Co22   1.943       .  S
O3           C11   1.277       .  A
O3          Co23   2.020       .  S
O4           C12   1.287       .  A
O4          Co24   2.067       .  S
O5           C11   1.266       .  A
O5          Co22   1.966       .  S
O6           C12   1.266       .  A
O6          Co21   1.982       .  S
O7           C10   1.300       .  A
O7          Co24   2.112       .  S
O8            C9   1.261       .  A
O8          Co23   1.968       .  S
C9         C2449   1.440       .  S
C10        C2401   1.524       .  S
C11        C2437   1.440       .  S
C12        C2377   1.523       .  S
O13          C26   1.236       .  A
O13         Co21   1.948       .  S
O14          C27   1.284       .  A
O14         Co22   2.050       .  S
O15          C28   1.291       .  A
O15         Co23   1.991       .  S
O16          C29   1.327       .  A
O16         Co24   2.213       .  S
O17          C29   1.249       .  A
O17         Co22   1.824       .  S
O18          C28   1.272       .  A
O18         Co21   1.953       .  S
O19          C26   1.290       .  A
O19         Co24   2.125       .  S
O20          C27   1.266       .  A
O20         Co23   1.885       .  S
Co21         O25   1.957       .  S
Co22         O25   1.879       .  S
Co23         O25   1.852       .  S
Co24         O25   2.042       .  S
C26        C2413   1.518       .  S
C27        C2425   1.437       .  S
C28        C2461   1.444       .  S
C29        C2389   1.506       .  S
O30          C38   1.267       .  A
O30         Co50   1.990       .  S
O31          C39   1.245       .  A
O31         Co51   1.915       .  S
O32          C40   1.288       .  A
O32         Co52   2.002       .  S
O33          C41   1.274       .  A
O33         Co53   2.100       .  S
O34          C40   1.278       .  A
O34         Co51   1.990       .  S
O35          C41   1.224       .  A
O35         Co50   1.920       .  S
O36          C39   1.282       .  A
O36         Co53   2.069       .  S
O37          C38   1.265       .  A
O37         Co52   1.938       .  S
C38        C2428   1.439       .  S
C39        C2305   1.488       .  S
C40        C2341   1.458       .  S
C41        C2317   1.492       .  S
O42          C55   1.271       .  A
O42         Co50   1.880       .  S
O43          C56   1.256       .  A
O43         Co51   2.016       .  S
O44          C57   1.269       .  A
O44         Co52   1.891       .  S
O45          C58   1.332       .  A
O45         Co53   2.203       .  S
O46          C58   1.269       .  A
O46         Co51   1.823       .  S
O47          C57   1.283       .  A
O47         Co50   2.086       .  S
O48          C55   1.327       .  A
O48         Co53   2.176       .  S
O49          C56   1.240       .  A
O49         Co52   1.949       .  S
Co50         O54   1.880       .  S
Co51         O54   1.840       .  S
Co52         O54   1.865       .  S
Co53         O54   2.153       .  S
C55        C2293   1.534       .  S
C56        C2353   1.452       .  S
C57        C2365   1.442       .  S
C58        C2329   1.495       .  S
O59          C67   1.243       .  A
O59         Co79   1.938       .  S
O60          C68   1.335       .  A
O60         Co80   2.203       .  S
O61          C69   1.269       .  A
O61         Co81   1.831       .  S
O62          C70   1.288       .  A
O62         Co82   2.095       .  S
O63          C69   1.331       .  A
O63         Co80   2.195       .  S
O64          C70   1.270       .  A
O64         Co79   1.889       .  S
O65          C68   1.272       .  A
O65         Co82   1.868       .  S
O66          C67   1.250       .  A
O66         Co81   2.020       .  S
C67        C2356   1.452       .  S
C68        C2209   1.534       .  S
C69        C2245   1.500       .  S
C70        C2281   1.451       .  S
O71          C84   1.265       .  A
O71         Co79   1.941       .  S
O72          C85   1.286       .  A
O72         Co80   2.097       .  S
O73          C86   1.277       .  A
O73         Co81   2.002       .  S
O74          C87   1.223       .  A
O74         Co82   1.922       .  S
O75          C87   1.271       .  A
O75         Co80   2.093       .  S
O76          C86   1.287       .  A
O76         Co79   1.992       .  S
O77          C84   1.268       .  A
O77         Co82   1.974       .  S
O78          C85   1.240       .  A
O78         Co81   1.893       .  S
Co79         O83   1.868       .  S
Co80         O83   2.155       .  S
Co81         O83   1.831       .  S
Co82         O83   1.884       .  S
C84        C2269   1.443       .  S
C85        C2233   1.504       .  S
C86        C2257   1.441       .  S
C87        C2224   1.501       .  S
O88          C96   1.292       .  A
O88        Co108   2.046       .  S
O89          C97   1.253       .  A
O89        Co109   1.896       .  S
O90          C98   1.238       .  A
O90        Co110   2.017       .  S
O91          C99   1.334       .  A
O91        Co111   2.208       .  S
O92          C98   1.245       .  A
O92        Co109   1.979       .  S
O93          C99   1.267       .  A
O93        Co108   1.832       .  S
O94          C97   1.322       .  A
O94        Co111   2.204       .  S
O95          C96   1.288       .  A
O95        Co110   1.898       .  S
C96        C2368   1.450       .  S
C97        C2149   1.528       .  S
C98        C2284   1.457       .  S
C99        C2185   1.504       .  S
O100        C113   1.230       .  A
O100       Co108   1.914       .  S
O101        C114   1.288       .  A
O101       Co109   2.013       .  S
O102        C115   1.248       .  A
O102       Co110   1.957       .  S
O103        C116   1.304       .  A
O103       Co111   2.156       .  S
O104        C116   1.256       .  A
O104       Co109   1.887       .  S
O105        C115   1.249       .  A
O105       Co108   1.956       .  S
O106        C113   1.279       .  A
O106       Co111   2.093       .  S
O107        C114   1.286       .  A
O107       Co110   2.028       .  S
Co108       O112   1.952       .  S
Co109       O112   1.862       .  S
Co110       O112   1.890       .  S
Co111       O112   2.126       .  S
C113       C2176   1.505       .  S
C114       C2197   1.451       .  S
C115       C2464   1.455       .  S
C116       C2161   1.489       .  S
O117        C125   1.254       .  A
O117       Co137   1.981       .  S
O118        C126   1.272       .  A
O118       Co138   1.982       .  S
O119        C127   1.247       .  A
O119       Co139   1.919       .  S
O120        C128   1.295       .  A
O120       Co140   2.109       .  S
O121        C127   1.289       .  A
O121       Co138   2.062       .  S
O122        C128   1.242       .  A
O122       Co137   1.880       .  S
O123        C126   1.279       .  A
O123       Co140   2.078       .  S
O124        C125   1.254       .  A
O124       Co139   1.918       .  S
C125       C2452   1.426       .  S
C126       C2101   1.515       .  S
C127       C2200   1.459       .  S
C128       C2125   1.488       .  S
O129        C142   1.249       .  A
O129       Co137   1.829       .  S
O130        C143   1.282       .  A
O130       Co138   2.024       .  S
O131        C144   1.259       .  A
O131       Co139   2.011       .  S
O132        C145   1.336       .  A
O132       Co140   2.244       .  S
O133        C145   1.245       .  A
O133       Co138   1.777       .  S
O134        C144   1.242       .  A
O134       Co137   1.981       .  S
O135        C142   1.327       .  A
O135       Co140   2.212       .  S
O136        C143   1.270       .  A
O136       Co139   1.886       .  S
Co137       O141   1.836       .  S
Co138       O141   1.865       .  S
Co139       O141   1.927       .  S
Co140       O141   2.136       .  S
C142       C2116   1.507       .  S
C143       C2272   1.433       .  S
C144       C2137   1.449       .  S
C145       C2089   1.519       .  S
O146        C154   1.268       .  A
O146       Co166   2.009       .  S
O147        C155   1.301       .  A
O147       Co167   2.122       .  S
O148        C156   1.282       .  A
O148       Co168   2.009       .  S
O149        C157   1.283       .  A
O149       Co169   2.015       .  S
O150        C156   1.292       .  A
O150       Co167   2.047       .  S
O151        C157   1.282       .  A
O151       Co166   2.027       .  S
O152        C155   1.268       .  A
O152       Co169   1.925       .  S
O153        C154   1.244       .  A
O153       Co168   1.946       .  S
C154       C2440   1.460       .  S
C155       C2053   1.507       .  S
C156       C2077   1.530       .  S
C157       C2344   1.449       .  S
O158        C171   1.270       .  A
O158       Co166   1.906       .  S
O159        C172   1.281       .  A
O159       Co167   2.104       .  S
O160        C173   1.281       .  A
O160       Co168   1.940       .  S
O161        C174   1.252       .  A
O161       Co169   1.849       .  S
O162        C174   1.323       .  A
O162       Co167   2.197       .  S
O163        C173   1.294       .  A
O163       Co166   1.996       .  S
O164        C171   1.278       .  A
O164       Co169   2.032       .  S
O165        C172   1.238       .  A
O165       Co168   1.959       .  S
Co166       O170   1.869       .  S
Co167       O170   2.054       .  S
Co168       O170   1.931       .  S
Co169       O170   1.889       .  S
C171       C2260   1.441       .  S
C172       C2041   1.526       .  S
C173       C2140   1.470       .  S
C174       C2065   1.508       .  S
O175        C183   1.272   1_554  A
O175       Co195   1.945   1_554  S
O176        C184   1.310       .  A
O176       Co196   2.176   1_554  S
O177        C185   1.224       .  A
O177       Co197   1.925   1_554  S
O178        C186   1.261       .  A
O178       Co198   1.976       .  S
O179        C185   1.286   1_556  A
O179       Co196   2.144       .  S
O180        C186   1.280       .  A
O180       Co195   1.956   1_554  S
O181        C184   1.247       .  A
O181       Co198   1.893       .  S
O182        C183   1.270       .  A
O182       Co197   2.025       .  S
C183       C2032   1.443       .  S
C184       C1969   1.516       .  S
C185       C1957   1.517   1_554  S
C186       C2008   1.446       .  S
O187        C200   1.254       .  A
O187       Co195   1.975       .  S
O188        C201   1.265       .  A
O188       Co196   2.027       .  S
O189        C202   1.267       .  A
O189       Co197   1.949       .  S
O190        C203   1.256       .  A
O190       Co198   1.934       .  S
O191        C203   1.291       .  A
O191       Co196   2.150   1_554  S
O192        C202   1.279       .  A
O192       Co195   2.024       .  S
O193        C200   1.282   1_554  A
O193       Co198   2.030       .  S
O194        C201   1.253       .  A
O194       Co197   1.981       .  S
Co195       O199   1.875       .  S
Co196       O199   2.192       .  S
Co197       O199   2.061       .  S
Co198       O199   1.901   1_554  S
C200       C2020   1.441       .  S
C201       C1981   1.501       .  S
C202       C1996   1.459       .  S
C203       C1948   1.522       .  S
O204        C212   1.246       .  A
O204       Co224   1.974       .  S
O205        C213   1.253       .  A
O205       Co225   1.792       .  S
O206        C214   1.271       .  A
O206       Co226   1.888       .  S
O207        C215   1.327       .  A
O207       Co227   2.194   1_655  S
O208        C214   1.289       .  A
O208       Co225   2.062       .  S
O209        C215   1.260       .  A
O209       Co224   1.839       .  S
O210        C213   1.330       .  A
O210       Co227   2.213       .  S
O211        C212   1.264       .  A
O211       Co226   2.034   1_655  S
C212       C1993   1.470       .  S
C213       C1888   1.496       .  S
C214       C1933   1.467       .  S
C215       C1897   1.491       .  S
O216        C229   1.238   1_655  A
O216       Co224   1.881       .  S
O217        C230   1.288       .  A
O217       Co225   2.083       .  S
O218        C231   1.244       .  A
O218       Co226   1.904       .  S
O219        C232   1.276       .  A
O219       Co227   2.051       .  S
O220        C232   1.273       .  A
O220       Co225   2.007       .  S
O221        C231   1.265   1_655  A
O221       Co224   1.987       .  S
O222        C229   1.283       .  A
O222       Co227   2.090       .  S
O223        C230   1.241       .  A
O223       Co226   1.896       .  S
Co224       O228   1.842   1_655  S
Co225       O228   1.907       .  S
Co226       O228   1.898       .  S
Co227       O228   2.108       .  S
C229       C1876   1.493       .  S
C230       C1909   1.458       .  S
C231       C1921   1.420       .  S
C232       C1861   1.510       .  S
O233        C241   1.289       .  A
O233       Co253   2.070       .  S
O234        C242   1.239       .  A
O234       Co254   1.913       .  S
O235        C243   1.262   1_556  A
O235       Co255   1.935       .  S
O236        C244   1.282       .  A
O236       Co256   2.084       .  S
O237        C243   1.273       .  A
O237       Co254   1.991       .  S
O238        C244   1.274       .  A
O238       Co253   2.011       .  S
O239        C242   1.278   1_556  A
O239       Co256   2.079       .  S
O240        C241   1.239       .  A
O240       Co255   1.892       .  S
C241       C1912   1.449       .  S
C242       C1801   1.505       .  S
C243       C1849   1.455       .  S
C244       C1777   1.530       .  S
O245        C258   1.260       .  A
O245       Co253   1.821       .  S
O246        C259   1.253       .  A
O246       Co254   1.995       .  S
O247        C260   1.282       .  A
O247       Co255   1.909       .  S
O248        C261   1.337       .  A
O248       Co256   2.231   1_554  S
O249        C261   1.262       .  A
O249       Co254   1.792       .  S
O250        C260   1.293       .  A
O250       Co253   2.043       .  S
O251        C258   1.326   1_554  A
O251       Co256   2.191   1_554  S
O252        C259   1.249       .  A
O252       Co255   1.989   1_554  S
Co253       O257   1.914       .  S
Co254       O257   1.871   1_554  S
Co255       O257   1.924       .  S
Co256       O257   2.102       .  S
C258       C1816   1.488   1_556  S
C259       C1825   1.479       .  S
C260       C1840   1.475       .  S
C261       C1789   1.515       .  S
O262        C270   1.235       .  A
O262       Co282   1.962       .  S
O263        C271   1.272       .  A
O263       Co283   1.913       .  S
O264        C272   1.241   1_655  A
O264       Co284   1.962       .  S
O265        C273   1.309       .  A
O265       Co285   2.153   1_655  S
O266        C272   1.237       .  A
O266       Co283   1.958       .  S
O267        C273   1.269       .  A
O267       Co282   1.910       .  S
O268        C271   1.308       .  A
O268       Co285   2.145       .  S
O269        C270   1.250       .  A
O269       Co284   1.965       .  S
C270       C2005   1.457       .  S
C271       C1741   1.521       .  S
C272       C1753   1.450       .  S
C273       C1708   1.516       .  S
O274        C287   1.253   1_655  A
O274       Co282   1.914       .  S
O275        C288   1.290       .  A
O275       Co283   2.032       .  S
O276        C289   1.267       .  A
O276       Co284   1.970       .  S
O277        C290   1.292       .  A
O277       Co285   2.139       .  S
O278        C290   1.255       .  A
O278       Co283   1.910       .  S
O279        C289   1.296       .  A
O279       Co282   2.021       .  S
O280        C287   1.296       .  A
O280       Co285   2.146       .  S
O281        C288   1.279       .  A
O281       Co284   2.027   1_455  S
Co282       O286   1.892   1_655  S
Co283       O286   1.874       .  S
Co284       O286   2.036   1_655  S
Co285       O286   2.158       .  S
C287       C1729   1.511       .  S
C288       C1828   1.464       .  S
C289       C1768   1.457       .  S
C290       C1717   1.507       .  S
O291        C299   1.241       .  A
O291       Co311   1.934       .  S
O292        C300   1.251       .  A
O292       Co312   1.809       .  S
O293        C301   1.254       .  A
O293       Co313   1.868   1_455  S
O294        C302   1.322   1_455  A
O294       Co314   2.190       .  S
O295        C301   1.291       .  A
O295       Co312   2.081       .  S
O296        C302   1.262       .  A
O296       Co311   1.853       .  S
O297        C300   1.327   1_556  A
O297       Co314   2.200       .  S
O298        C299   1.246   1_455  A
O298       Co313   1.992   1_456  S
C299       C1924   1.418   1_655  S
C300       C1681   1.482   1_554  S
C301       C1837   1.451       .  S
C302       C1672   1.514       .  S
O303        C316   1.261       .  A
O303       Co311   1.872       .  S
O304        C317   1.287       .  A
O304       Co312   2.036       .  S
O305        C318   1.257   1_554  A
O305       Co313   1.910       .  S
O306        C319   1.282       .  A
O306       Co314   2.070   1_554  S
O307        C319   1.275       .  A
O307       Co312   1.988       .  S
O308        C318   1.291       .  A
O308       Co311   2.076       .  S
O309        C316   1.300       .  A
O309       Co314   2.130   1_655  S
O310        C317   1.248   1_655  A
O310       Co313   1.916       .  S
Co311       O315   1.866   1_556  S
Co312       O315   1.914   1_455  S
Co313       O315   1.863       .  S
Co314       O315   2.076   1_456  S
C316       C1657   1.485       .  S
C317       C1756   1.446   1_455  S
C318       C2017   1.463       .  S
C319       C1693   1.509       .  S
O320        C328   1.255       .  A
O320       Co340   1.979       .  S
O321        C329   1.267       .  A
O321       Co341   1.980       .  S
O322        C330   1.243       .  A
O322       Co342   1.889       .  S
O323        C331   1.289       .  A
O323       Co343   2.079       .  S
O324        C330   1.299   1_556  A
O324       Co341   2.094       .  S
O325        C331   1.252   1_655  A
O325       Co340   1.914       .  S
O326        C329   1.280   1_554  A
O326       Co343   2.082       .  S
O327        C328   1.251   1_455  A
O327       Co342   1.924       .  S
C328       C1765   1.422       .  S
C329       C1624   1.510   1_556  S
C330       C1852   1.457       .  S
C331       C1645   1.489       .  S
O332        C345   1.252       .  A
O332       Co340   1.817       .  S
O333        C346   1.285       .  A
O333       Co341   2.032       .  S
O334        C347   1.262       .  A
O334       Co342   2.005   1_656  S
O335        C348   1.327       .  A
O335       Co343   2.197   1_556  S
O336        C348   1.259       .  A
O336       Co341   1.811       .  S
O337        C347   1.253       .  A
O337       Co340   1.978   1_556  S
O338        C345   1.330       .  A
O338       Co343   2.218   1_655  S
O339        C346   1.267   1_554  A
O339       Co342   1.891       .  S
Co340       O344   1.852   1_655  S
Co341       O344   1.894   1_556  S
Co342       O344   1.881       .  S
Co343       O344   2.091       .  S
C345       C1609   1.503       .  S
C346       C1936   1.459       .  S
C347       C2029   1.455       .  S
C348       C1636   1.491       .  S
O349        C357   1.285       .  A
O349       Co369   2.055       .  S
O350        C358   1.224       .  A
O350       Co370   1.914       .  S
O351        C359   1.241       .  A
O351       Co371   1.908   1_554  S
O352        C360   1.270       .  A
O352       Co372   2.066       .  S
O353        C359   1.249       .  A
O353       Co370   2.007       .  S
O354        C360   1.230       .  A
O354       Co369   1.909       .  S
O355        C358   1.278       .  A
O355       Co372   2.118   1_554  S
O356        C357   1.250   1_554  A
O356       Co371   1.890   1_554  S
C357       C1597   1.464       .  S
C358       C1540   1.506       .  S
C359       C1573   1.421       .  S
C360       C1525   1.490       .  S
O361        C374   1.274       .  A
O361       Co369   1.848       .  S
O362        C375   1.245       .  A
O362       Co370   1.979   1_556  S
O363        C376   1.245       .  A
O363       Co371   1.949       .  S
O364        C377   1.315   1_556  A
O364       Co372   2.169       .  S
O365        C377   1.253       .  A
O365       Co370   1.874       .  S
O366        C376   1.253       .  A
O366       Co369   1.997       .  S
O367        C374   1.324       .  A
O367       Co372   2.170       .  S
O368        C375   1.272       .  A
O368       Co371   2.032       .  S
Co369       O373   1.909       .  S
Co370       O373   1.873   1_554  S
Co371       O373   2.039       .  S
Co372       O373   2.222       .  S
C374       C1549   1.493       .  S
C375       C1585   1.455       .  S
C376       C1564   1.445       .  S
C377       C1516   1.509       .  S
O378        C386   1.242   1_545  A
O378       Co398   1.938       .  S
O379        C387   1.301       .  A
O379       Co399   2.150       .  S
O380        C388   1.242       .  A
O380       Co400   1.927       .  S
O381        C389   1.284       .  A
O381       Co401   2.017       .  S
O382        C388   1.272   1_545  A
O382       Co399   2.064       .  S
O383        C389   1.274       .  A
O383       Co398   1.994       .  S
O384        C387   1.253       .  A
O384       Co401   1.876       .  S
O385        C386   1.245       .  A
O385       Co400   1.967       .  S
C386       C1504   1.430   1_565  S
C387       C1453   1.483       .  S
C388       C1432   1.508       .  S
C389       C1477   1.444       .  S
O390        C403   1.237       .  A
O390       Co398   1.998       .  S
O391        C404   1.330       .  A
O391       Co399   2.203   1_565  S
O392        C405   1.304       .  A
O392       Co400   2.073       .  S
O393        C406   1.268       .  A
O393       Co401   1.895       .  S
O394        C406   1.316       .  A
O394       Co399   2.169       .  S
O395        C405   1.272       .  A
O395       Co398   1.856   1_565  S
O396        C403   1.240       .  A
O396       Co401   2.000       .  S
O397        C404   1.261       .  A
O397       Co400   1.810       .  S
Co398       O402   1.843       .  S
Co399       O402   2.120       .  S
Co400       O402   1.972   1_565  S
Co401       O402   1.906       .  S
C403       C1489   1.458       .  S
C404       C1468   1.499       .  S
C405       C1561   1.463       .  S
C406       C1441   1.522       .  S
O407        C415   1.260       .  A
O407       Co427   1.979       .  S
O408        C416   1.234       .  A
O408       Co428   1.892       .  S
O409        C417   1.283       .  A
O409       Co429   1.964   1_554  S
O410        C418   1.273       .  A
O410       Co430   2.085       .  S
O411        C417   1.275       .  A
O411       Co428   2.004       .  S
O412        C418   1.231       .  A
O412       Co427   1.900       .  S
O413        C416   1.287       .  A
O413       Co430   2.103   1_554  S
O414        C415   1.268       .  A
O414       Co429   1.954       .  S
C415       C1408   1.453       .  S
C416       C1384   1.491       .  S
C417       C1393   1.467       .  S
C418       C1360   1.500       .  S
O419        C432   1.265       .  A
O419       Co427   1.831       .  S
O420        C433   1.238       .  A
O420       Co428   2.009   1_556  S
O421        C434   1.267       .  A
O421       Co429   1.853       .  S
O422        C435   1.331       .  A
O422       Co430   2.191   1_554  S
O423        C435   1.269       .  A
O423       Co428   1.846       .  S
O424        C434   1.296       .  A
O424       Co427   2.094       .  S
O425        C432   1.336       .  A
O425       Co430   2.215       .  S
O426        C433   1.245       .  A
O426       Co429   1.960       .  S
Co427       O431   1.901   1_556  S
Co428       O431   1.816       .  S
Co429       O431   1.875   1_556  S
Co430       O431   2.151   1_556  S
C432       C1369   1.519       .  S
C433       C1420   1.438       .  S
C434       C1480   1.448       .  S
C435       C1345   1.498       .  S
O436        C444   1.261       .  A
O436       Co456   1.866   1_565  S
O437        C445   1.319       .  A
O437       Co457   2.180       .  S
O438        C446   1.248       .  A
O438       Co458   1.820       .  S
O439        C447   1.253       .  A
O439       Co459   1.977       .  S
O440        C446   1.320       .  A
O440       Co457   2.187   1_565  S
O441        C447   1.254   1_565  A
O441       Co456   2.009   1_565  S
O442        C445   1.261       .  A
O442       Co459   1.866       .  S
O443        C444   1.282       .  A
O443       Co458   2.042       .  S
C444       C1576   1.448       .  S
C445       C1297   1.500       .  S
C446       C1288   1.494       .  S
C447       C1324   1.476   1_545  S
O448        C461   1.259       .  A
O448       Co456   1.928       .  S
O449        C462   1.290       .  A
O449       Co457   2.113       .  S
O450        C463   1.289   1_565  A
O450       Co458   2.057       .  S
O451        C464   1.262       .  A
O451       Co459   1.881       .  S
O452        C464   1.302       .  A
O452       Co457   2.125       .  S
O453        C463   1.251       .  A
O453       Co456   1.942       .  S
O454        C461   1.285       .  A
O454       Co459   2.034       .  S
O455        C462   1.266   1_565  A
O455       Co458   1.923       .  S
Co456       O460   1.879       .  S
Co457       O460   2.091       .  S
Co458       O460   1.884   1_565  S
Co459       O460   1.866       .  S
C461       C1396   1.447       .  S
C462       C1312   1.514   1_545  S
C463       C1336   1.458       .  S
C464       C1273   1.479       .  S
O465        C473   1.272       .  A
O465       Co485   1.983       .  S
O466        C474   1.259       .  A
O466       Co486   1.904       .  S
O467        C475   1.273       .  A
O467       Co487   2.010   1_545  S
O468        C476   1.292       .  A
O468       Co488   2.106   1_554  S
O469        C475   1.278       .  A
O469       Co486   1.999       .  S
O470        C476   1.256   1_565  A
O470       Co485   1.911       .  S
O471        C474   1.297   1_554  A
O471       Co488   2.116   1_554  S
O472        C473   1.278       .  A
O472       Co487   2.037   1_554  S
C473       C1321   1.472       .  S
C474       C1237   1.484   1_556  S
C475       C1405   1.452       .  S
C476       C1261   1.489       .  S
O477        C490   1.258       .  A
O477       Co485   1.849       .  S
O478        C491   1.279   1_545  A
O478       Co486   2.032       .  S
O479        C492   1.283       .  A
O479       Co487   1.913       .  S
O480        C493   1.313       .  A
O480       Co488   2.181       .  S
O481        C493   1.254       .  A
O481       Co486   1.883       .  S
O482        C492   1.285   1_554  A
O482       Co485   2.073       .  S
O483        C490   1.313   1_556  A
O483       Co488   2.174   1_565  S
O484        C491   1.284       .  A
O484       Co487   1.957       .  S
Co485       O489   1.876   1_565  S
Co486       O489   1.883   1_556  S
Co487       O489   1.814   1_566  S
Co488       O489   2.101   1_556  S
C490       C1228   1.503       .  S
C491       C1492   1.463   1_565  S
C492       C1588   1.466       .  S
C493       C1249   1.502       .  S
O494        C502   1.272       .  A
O494       Co514   1.962       .  S
O495        C503   1.260       .  A
O495       Co515   1.901       .  S
O496        C504   1.272       .  A
O496       Co516   1.930   1_556  S
O497        C505   1.283       .  A
O497       Co517   2.098   1_565  S
O498        C504   1.299       .  A
O498       Co515   2.083       .  S
O499        C505   1.233   1_554  A
O499       Co514   1.905       .  S
O500        C503   1.299       .  A
O500       Co517   2.140       .  S
O501        C502   1.289   1_556  A
O501       Co516   2.022   1_566  S
C502       C1600   1.453       .  S
C503       C1201   1.503       .  S
C504       C1501   1.461       .  S
C505       C1192   1.499       .  S
O506        C519   1.268       .  A
O506       Co514   1.834       .  S
O507        C520   1.272       .  A
O507       Co515   2.029       .  S
O508        C521   1.244       .  A
O508       Co516   1.951       .  S
O509        C522   1.319   1_554  A
O509       Co517   2.185   1_554  S
O510        C522   1.263       .  A
O510       Co515   1.885       .  S
O511        C521   1.254       .  A
O511       Co514   2.023   1_545  S
O512        C519   1.326   1_545  A
O512       Co517   2.185   1_554  S
O513        C520   1.262   1_554  A
O513       Co516   1.890       .  S
Co514       O518   1.836   1_564  S
Co515       O518   1.880       .  S
Co516       O518   1.898   1_554  S
Co517       O518   2.110       .  S
C519       C1216   1.495       .  S
C520       C1417   1.445       .  S
C521       C1333   1.456       .  S
C522       C1177   1.520       .  S
O523        C531   1.248       .  A
O523       Co543   1.989       .  S
O524        C532   1.256       .  A
O524       Co544   1.814       .  S
O525        C533   1.257       .  A
O525       Co545   1.960   1_655  S
O526        C534   1.313       .  A
O526       Co546   2.161   1_655  S
O527        C533   1.264       .  A
O527       Co544   1.959   1_655  S
O528        C534   1.258       .  A
O528       Co543   1.905       .  S
O529        C532   1.322       .  A
O529       Co546   2.185       .  S
O530        C531   1.272       .  A
O530       Co545   2.018   1_655  S
C531       C1129   1.456       .  S
C532       C1096   1.480       .  S
C533       C1153   1.448       .  S
C534       C1120   1.530       .  S
O535        C548   1.210       .  A
O535       Co543   1.922   1_455  S
O536        C549   1.258       .  A
O536       Co544   1.942       .  S
O537        C550   1.270   1_455  A
O537       Co545   1.962       .  S
O538        C551   1.268       .  A
O538       Co546   2.050       .  S
O539        C551   1.245       .  A
O539       Co544   1.951       .  S
O540        C550   1.260       .  A
O540       Co543   1.988       .  S
O541        C548   1.269       .  A
O541       Co546   2.115       .  S
O542        C549   1.277       .  A
O542       Co545   1.983       .  S
Co543       O547   1.852   1_655  S
Co544       O547   1.896       .  S
Co545       O547   2.074       .  S
Co546       O547   2.225       .  S
C548       C1105   1.503       .  S
C549       C1141   1.447       .  S
C550       C1165   1.442       .  S
C551       C1081   1.521       .  S
O552        C560   1.261       .  A
O552       Co572   1.984       .  S
O553        C561   1.257       .  A
O553       Co573   1.904       .  S
O554        C562   1.287   1_565  A
O554       Co574   1.983   1_565  S
O555        C563   1.275       .  A
O555       Co575   2.071   1_565  S
O556        C562   1.303       .  A
O556       Co573   2.064       .  S
O557        C563   1.238       .  A
O557       Co572   1.917       .  S
O558        C561   1.299       .  A
O558       Co575   2.137       .  S
O559        C560   1.266       .  A
O559       Co574   1.950   1_565  S
C560       C1132   1.448       .  S
C561       C1024   1.509       .  S
C562       C1069   1.456       .  S
C563       C1033   1.508       .  S
O564        C577   1.267       .  A
O564       Co572   1.809       .  S
O565        C578   1.242       .  A
O565       Co573   1.927       .  S
O566        C579   1.265       .  A
O566       Co574   1.873       .  S
O567        C580   1.309       .  A
O567       Co575   2.152       .  S
O568        C580   1.268       .  A
O568       Co573   1.907       .  S
O569        C579   1.296       .  A
O569       Co572   2.094   1_545  S
O570        C577   1.321   1_545  A
O570       Co575   2.169       .  S
O571        C578   1.250       .  A
O571       Co574   1.975       .  S
Co572       O576   1.948       .  S
Co573       O576   1.837   1_545  S
Co574       O576   1.865   1_545  S
Co575       O576   2.102   1_545  S
C577       C1012   1.476       .  S
C578       C1045   1.435       .  S
C579       C1060   1.460       .  S
C580       C1000   1.510       .  S
O581        C589   1.248       .  A
O581       Co601   2.017   1_545  S
O582        C590   1.254       .  A
O582       Co602   1.859       .  S
O583        C591   1.250       .  A
O583       Co603   1.855       .  S
O584        C592   1.334   1_545  A
O584       Co604   2.211       .  S
O585        C591   1.280       .  A
O585       Co602   2.056       .  S
O586        C592   1.264       .  A
O586       Co601   1.835       .  S
O587        C590   1.328       .  A
O587       Co604   2.211       .  S
O588        C589   1.244       .  A
O588       Co603   1.960       .  S
C589        C976   1.445       .  S
C590        C925   1.538       .  S
C591        C961   1.423       .  S
C592        C949   1.500   1_565  S
O593        C606   1.237       .  A
O593       Co601   1.900       .  S
O594        C607   1.296   1_545  A
O594       Co602   2.073       .  S
O595        C608   1.276       .  A
O595       Co603   1.960   1_565  S
O596        C609   1.292       .  A
O596       Co604   2.122       .  S
O597        C609   1.258       .  A
O597       Co602   1.913       .  S
O598        C608   1.272       .  A
O598       Co601   1.986       .  S
O599        C606   1.291       .  A
O599       Co604   2.113   1_565  S
O600        C607   1.269       .  A
O600       Co603   1.926   1_565  S
Co601       O605   1.848       .  S
Co602       O605   1.878   1_545  S
Co603       O605   1.883   1_545  S
Co604       O605   2.093   1_545  S
C606        C937   1.509       .  S
C607        C985   1.458       .  S
C608       C1144   1.426       .  S
C609        C916   1.492       .  S
O610        C618   1.318   1_655  A
O610       Co630   2.175       .  S
O611        C619   1.254       .  A
O611       Co631   1.950       .  S
O612        C620   1.289       .  A
O612       Co632   2.003   1_455  S
O613        C621   1.304       .  A
O613       Co633   2.165       .  S
O614        C620   1.274       .  A
O614       Co631   1.984       .  S
O615        C621   1.254   1_655  A
O615       Co630   1.850       .  S
O616        C619   1.283       .  A
O616       Co633   2.067       .  S
O617        C618   1.263       .  A
O617       Co632   1.893   1_455  S
C618        C901   1.449       .  S
C619        C865   1.514       .  S
C620        C964   1.449       .  S
C621        C841   1.498       .  S
O622        C635   1.263       .  A
O622       Co630   1.882       .  S
O623        C636   1.259       .  A
O623       Co631   1.992   1_655  S
O624        C637   1.261       .  A
O624       Co632   1.912       .  S
O625        C638   1.337       .  A
O625       Co633   2.222       .  S
O626        C638   1.267       .  A
O626       Co631   1.803       .  S
O627        C637   1.266       .  A
O627       Co630   2.028       .  S
O628        C635   1.320       .  A
O628       Co633   2.196   1_655  S
O629        C636   1.243       .  A
O629       Co632   1.941       .  S
Co630       O634   1.900   1_655  S
Co631       O634   1.840       .  S
Co632       O634   1.869   1_655  S
Co633       O634   2.057       .  S
C635        C853   1.533       .  S
C636        C889   1.467       .  S
C637       C1048   1.424       .  S
C638        C877   1.502       .  S
O639        C647   1.263   1_455  A
O639       Co659   1.955   1_565  S
O640        C648   1.255   1_565  A
O640       Co660   2.040   1_565  S
O641        C649   1.239       .  A
O641       Co661   1.918   1_455  S
O642        C650   1.254       .  A
O642       Co662   1.983       .  S
O643        C649   1.281       .  A
O643       Co660   2.093   1_565  S
O644        C650   1.254       .  A
O644       Co659   1.951       .  S
O645        C648   1.237       .  A
O645       Co662   1.973       .  S
O646        C647   1.263       .  A
O646       Co661   1.985       .  S
C647       C1156   1.437       .  S
C648        C796   1.513       .  S
C649        C808   1.497       .  S
C650        C973   1.457       .  S
O651        C664   1.278       .  A
O651       Co659   1.862       .  S
O652        C665   1.319   1_545  A
O652       Co660   2.187   1_655  S
O653        C666   1.238       .  A
O653       Co661   1.997   1_545  S
O654        C667   1.270       .  A
O654       Co662   1.787       .  S
O655        C667   1.337       .  A
O655       Co660   2.218       .  S
O656        C666   1.257       .  A
O656       Co659   2.069   1_655  S
O657        C664   1.301       .  A
O657       Co662   2.061       .  S
O658        C665   1.255       .  A
O658       Co661   1.849       .  S
Co659       O663   1.900       .  S
Co660       O663   2.131       .  S
Co661       O663   1.849   1_665  S
Co662       O663   2.034       .  S
C664        C892   1.454       .  S
C665        C820   1.515       .  S
C666       C1057   1.465       .  S
C667        C832   1.478       .  S
O668        C676   1.254       .  A
O668       Co688   1.974       .  S
O669        C677   1.274       .  A
O669       Co689   1.997       .  S
O670        C678   1.250       .  A
O670       Co690   1.943       .  S
O671        C679   1.285       .  A
O671       Co691   2.086       .  S
O672        C678   1.286   1_655  A
O672       Co689   2.044       .  S
O673        C679   1.237   1_565  A
O673       Co688   1.879       .  S
O674        C677   1.278   1_455  A
O674       Co691   2.074       .  S
O675        C676   1.257   1_545  A
O675       Co690   1.932       .  S
C676        C988   1.429       .  S
C677        C757   1.517   1_655  S
C678        C904   1.461       .  S
C679        C769   1.475       .  S
O680        C693   1.252       .  A
O680       Co688   1.843       .  S
O681        C694   1.288       .  A
O681       Co689   2.043       .  S
O682        C695   1.258   1_455  A
O682       Co690   2.023   1_565  S
O683        C696   1.326       .  A
O683       Co691   2.197   1_655  S
O684        C696   1.252       .  A
O684       Co689   1.822       .  S
O685        C695   1.240   1_455  A
O685       Co688   1.976       .  S
O686        C693   1.325       .  A
O686       Co691   2.211   1_565  S
O687        C694   1.275   1_455  A
O687       Co690   1.877       .  S
Co688       O692   1.846   1_565  S
Co689       O692   1.897   1_655  S
Co690       O692   1.942       .  S
Co691       O692   2.146       .  S
C693        C781   1.515       .  S
C694       C1072   1.442       .  S
C695       C1168   1.453       .  S
C696        C745   1.490       .  S
C697        C698   1.385   1_655  D
C697        C829   1.528       .  S
C697        C880   1.524   1_655  S
C698       C1696   1.539       .  S
C698       C1744   1.532       .  S
C699        C700   1.377       .  D
C699       C1213   1.522       .  S
C699       C1309   1.529       .  S
C700        C817   1.524       .  S
C700       C1009   1.515       .  S
C701        C702   1.380       .  D
C701       C1648   1.525       .  S
C701       C1732   1.529       .  S
C702        C805   1.525       .  S
C702       C1093   1.517       .  S
C703        C704   1.383       .  D
C703       C1264   1.520       .  S
C703       C1300   1.530       .  S
C704        C793   1.527       .  S
C704        C952   1.532       .  S
C705        C706   1.390       .  D
C705       C2080   1.540       .  S
C705       C2404   1.523       .  S
C706        C868   1.529       .  S
C706        C928   1.542       .  S
C707        C708   1.406       .  D
C707       C2173   1.543       .  S
C707       C2416   1.537       .  S
C708        C856   1.550       .  S
C708        C997   1.564       .  S
C709        C710   1.384       .  D
C709       C2068   1.537       .  S
C709       C2236   1.525       .  S
C710        C940   1.538       .  S
C710       C1084   1.526       .  S
C711        C712   1.382       .  D
C711       C1252   1.536       .  S
C711       C1444   1.522       .  S
C712        C772   1.522       .  S
C712        C913   1.528       .  S
C713        C714   1.381       .  D
C713       C1684   1.520       .  S
C713       C1813   1.514       .  S
C714       C1240   1.523       .  S
C714       C1357   1.520       .  S
C715        C716   1.383       .  D
C715       C1621   1.538       .  S
C715       C1804   1.531       .  S
C716       C1225   1.527       .  S
C716       C1513   1.535       .  S
C717        C718   1.376       .  D
C717       C2248   1.524       .  S
C717       C2332   1.523       .  S
C718       C1285   1.524       .  S
C718       C1537   1.528       .  S
C719        C720   1.382       .  D
C719       C2320   1.521       .  S
C719       C2392   1.536       .  S
C720       C1276   1.509       .  S
C720       C1381   1.534       .  S
C721        C722   1.388       .  D
C721       C1372   1.539       .  S
C721       C1456   1.530       .  S
C722       C2128   1.527       .  S
C722       C2380   1.547       .  S
C723        C724   1.386       .  D
C723       C1669   1.529       .  S
C723       C1873   1.528       .  S
C724        C760   1.534       .  S
C724        C844   1.541       .  S
C725        C726   1.387       .  D
C725       C1180   1.546       .  S
C725       C1348   1.523       .  S
C726       C1660   1.520       .  S
C726       C1945   1.546       .  S
C727        C728   1.381       .  D
C727       C2056   1.528       .  S
C727       C2308   1.523       .  S
C728       C1720   1.521       .  S
C728       C1792   1.527       .  S
C729        C730   1.392       .  D
C729       C2188   1.540       .  S
C729       C2296   1.535       .  S
C730       C1705   1.528       .  S
C730       C1972   1.543       .  S
C731        C732   1.385       .  D
C731       C2044   1.546       .  S
C731       C2113   1.526       .  S
C732       C1780   1.557       .  S
C732       C1864   1.536       .  S
C733        C734   1.387       .  D
C733        C784   1.544       .  S
C733       C1108   1.534       .  S
C734       C1633   1.533       .  S
C734       C1885   1.540       .  S
C735        C736   1.383       .  D
C735        C748   1.523       .  S
C735       C1021   1.531       .  S
C736       C1204   1.524       .  S
C736       C1429   1.526       .  S
C737        C738   1.388       .  D
C737       C1612   1.527   1_556  S
C737       C1960   1.534   1_556  S
C738       C1189   1.542       .  S
C738       C1528   1.524       .  S
C739        C740   1.390       .  D
C739       C2104   1.531       .  S
C739       C2164   1.532       .  S
C740       C1900   1.532       .  S
C740       C1984   1.515       .  S
C741        C742   1.399       .  D
C741       C2152   1.563       .  S
C741       C2212   1.547       .  S
C742       C1036   1.530       .  S
C742       C1117   1.531       .  S
C743        C744   1.384       .  D
C743       C1465   1.519       .  S
C743       C1552   1.522       .  S
C744       C2092   1.528       .  S
C744       C2221   1.539       .  S
C745        C746   1.405       .  A
C745        C750   1.414   1_545  A
C746        C747   1.414       .  A
C746        H755   1.084       .  S
C747        C748   1.431       .  A
C747        S751   1.804       .  S
C748        C749   1.403   1_545  A
C749        C750   1.405       .  A
C749        H756   1.084       .  S
C750        S752   1.791       .  S
S751        H754   1.398       .  S
S752        H753   1.405       .  S
C757        C758   1.408       .  A
C757        C762   1.415   1_455  A
C758        C759   1.424       .  A
C758        H767   1.081       .  S
C759        C760   1.432       .  A
C759        S763   1.804       .  S
C760        C761   1.405   1_455  A
C761        C762   1.411       .  A
C761        H768   1.082       .  S
C762        S764   1.806       .  S
S763        H766   1.399       .  S
S764        H765   1.407       .  S
C769        C770   1.403   1_545  A
C769        C774   1.414       .  A
C770        C771   1.404       .  A
C770        H779   1.085       .  S
C771        C772   1.424   1_565  A
C771        S775   1.800       .  S
C772        C773   1.409       .  A
C773        C774   1.408       .  A
C773        H780   1.077       .  S
C774        S776   1.802       .  S
S775        H778   1.393       .  S
S776        H777   1.405       .  S
C781        C782   1.416   1_455  A
C781        C786   1.419       .  A
C782        C783   1.431       .  A
C782        H791   1.083       .  S
C783        C784   1.428   1_655  A
C783        S787   1.798       .  S
C784        C785   1.404       .  A
C785        C786   1.404       .  A
C785        H792   1.071       .  S
C786        S788   1.807       .  S
S787        H790   1.404       .  S
S788        H789   1.407       .  S
C793        C794   1.411   1_545  A
C793        C798   1.426       .  A
C794        C795   1.418       .  A
C794        H803   1.082       .  S
C795        C796   1.418   1_565  A
C795        S799   1.797       .  S
C796        C797   1.408       .  A
C797        C798   1.408       .  A
C797        H804   1.084       .  S
C798        S800   1.807       .  S
S799        H802   1.406       .  S
S800        H801   1.396       .  S
C805        C806   1.403   1_455  A
C805        C810   1.420       .  A
C806        C807   1.400       .  A
C806        H815   1.075       .  S
C807        C808   1.415   1_655  A
C807        S811   1.796       .  S
C808        C809   1.408       .  A
C809        C810   1.419       .  A
C809        H816   1.081       .  S
C810        S812   1.792       .  S
S811        H814   1.407       .  S
S812        H813   1.406       .  S
C817        C818   1.417   1_565  A
C817        C822   1.410       .  A
C818        C819   1.422       .  A
C818        H827   1.083       .  S
C819        C820   1.418   1_545  A
C819        S823   1.797       .  S
C820        C821   1.412       .  A
C821        C822   1.401       .  A
C821        H828   1.078       .  S
C822        S824   1.804       .  S
S823        H826   1.406       .  S
S824        H825   1.406       .  S
C829        C830   1.409   1_655  A
C829        C834   1.420       .  A
C830        C831   1.400       .  A
C830        H839   1.078       .  S
C831        C832   1.410       .  A
C831        S835   1.804       .  S
C832        C833   1.408   1_455  A
C833        C834   1.418       .  A
C833        H840   1.083       .  S
C834        S836   1.799       .  S
S835        H838   1.408       .  S
S836        H837   1.407       .  S
C841        C842   1.411       .  A
C841        C846   1.419   1_455  A
C842        C843   1.426       .  A
C842        H851   1.079       .  S
C843        C844   1.422       .  A
C843        S847   1.799       .  S
C844        C845   1.410   1_455  A
C845        C846   1.411       .  A
C845        H852   1.082       .  S
C846        S848   1.802       .  S
S847        H850   1.407       .  S
S848        H849   1.408       .  S
C853        C854   1.415       .  A
C853        C858   1.426       .  A
C854        C855   1.429       .  A
C854        H863   1.083       .  S
C855        C856   1.428       .  A
C855        S859   1.803       .  S
C856        C857   1.407       .  A
C857        C858   1.413       .  A
C857        H864   1.079       .  S
C858        S860   1.811       .  S
S859        H862   1.403       .  S
S860        H861   1.407       .  S
C865        C866   1.411       .  A
C865        C870   1.417       .  A
C866        C867   1.409       .  A
C866        H875   1.081       .  S
C867        C868   1.413       .  A
C867        S871   1.806       .  S
C868        C869   1.416       .  A
C869        C870   1.420       .  A
C869        H876   1.083       .  S
C870        S872   1.797       .  S
S871        H874   1.406       .  S
S872        H873   1.405       .  S
C877        C878   1.406   1_455  A
C877        C882   1.420       .  A
C878        C879   1.421       .  A
C878        H887   1.083       .  S
C879        C880   1.431   1_655  A
C879        S883   1.804       .  S
C880        C881   1.401       .  A
C881        C882   1.399       .  A
C881        H888   1.081       .  S
C882        S884   1.806       .  S
S883        H886   1.398       .  S
S884        H885   1.407       .  S
C889        C890   1.406       .  A
C889        C894   1.422       .  A
C890        C891   1.396       .  A
C890        H899   1.083       .  S
C891        C892   1.409   1_655  A
C891        S895   1.797   1_655  S
C892        C893   1.389   1_455  A
C893        C894   1.375       .  A
C893        H900   1.085       .  S
C894        S896   1.799       .  S
S895        H898   1.406       .  S
S896        H897   1.385       .  S
C901        C902   1.393   1_455  A
C901        C906   1.414       .  A
C902        C903   1.387       .  A
C902        H911   1.085       .  S
C903        C904   1.413   1_655  A
C903        S907   1.801       .  S
C904        C905   1.401       .  A
C905        C906   1.393       .  A
C905        H912   1.084       .  S
C906        S908   1.807       .  S
S907        H910   1.404       .  S
S908        H909   1.405       .  S
C913        C914   1.406   1_545  A
C913        C918   1.430       .  A
C914        C915   1.407       .  A
C914        H923   1.078       .  S
C915        C916   1.414   1_565  A
C915        S919   1.791       .  S
C916        C917   1.403       .  A
C917        C918   1.413       .  A
C917        H924   1.084       .  S
C918        S920   1.798       .  S
S919        H922   1.407       .  S
S920        H921   1.391       .  S
C925        C926   1.410       .  A
C925        C930   1.440       .  A
C926        C927   1.429       .  A
C926        H935   1.083       .  S
C927        C928   1.437       .  A
C927        S931   1.801       .  S
C928        C929   1.398       .  A
C929        C930   1.404       .  A
C929        H936   1.084       .  S
C930        S932   1.807       .  S
S931        H934   1.389       .  S
S932        H933   1.408       .  S
C937        C938   1.410       .  A
C937        C942   1.419       .  A
C938        C939   1.421       .  A
C938        H947   1.072       .  S
C939        C940   1.418       .  A
C939        S943   1.805       .  S
C940        C941   1.412       .  A
C941        C942   1.412       .  A
C941        H948   1.082       .  S
C942        S944   1.802       .  S
S943        H946   1.403       .  S
S944        H945   1.407       .  S
C949        C950   1.409       .  A
C949        C954   1.417   1_545  A
C950        C951   1.421       .  A
C950        H959   1.082       .  S
C951        C952   1.421       .  A
C951        S955   1.799       .  S
C952        C953   1.410   1_545  A
C953        C954   1.406       .  A
C953        H960   1.081       .  S
C954        S956   1.803       .  S
S955        H958   1.406       .  S
S956        H957   1.407       .  S
C961        C962   1.393       .  A
C961        C966   1.403       .  A
C962        C963   1.380       .  A
C962        H971   1.086       .  S
C963        C964   1.413       .  A
C963        S967   1.800       .  S
C964        C965   1.405       .  A
C965        C966   1.383       .  A
C965        H972   1.084       .  S
C966        S968   1.805       .  S
S967        H970   1.408       .  S
S968        H969   1.401       .  S
C973        C974   1.397       .  A
C973        C978   1.412       .  A
C974        C975   1.386       .  A
C974        H983   1.081   1_545  S
C975        C976   1.404       .  A
C975        S979   1.804   1_545  S
C976        C977   1.398       .  A
C977        C978   1.395       .  A
C977        H984   1.084       .  S
C978        S980   1.800       .  S
S979        H982   1.406       .  S
S980        H981   1.407       .  S
C985        C986   1.405       .  A
C985        C990   1.413       .  A
C986        C987   1.381       .  A
C986        H995   1.079       .  S
C987        C988   1.400       .  A
C987        S991   1.809       .  S
C988        C989   1.397       .  A
C989        C990   1.385       .  A
C989        H996   1.085   1_565  S
C990        S992   1.802   1_565  S
S991        H994   1.397       .  S
S992        H993   1.406       .  S
C997        C998   1.411       .  A
C997       C1002   1.430       .  A
C998        C999   1.417       .  A
C998       H1007   1.079       .  S
C999       C1000   1.414       .  A
C999       S1003   1.794       .  S
C1000      C1001   1.398       .  A
C1001      C1002   1.416       .  A
C1001      H1008   1.083       .  S
C1002      S1004   1.800       .  S
S1003      H1006   1.398       .  S
S1004      H1005   1.407       .  S
C1009      C1010   1.406   1_565  A
C1009      C1014   1.426       .  A
C1010      C1011   1.408       .  A
C1010      H1019   1.084       .  S
C1011      C1012   1.412   1_545  A
C1011      S1015   1.796       .  S
C1012      C1013   1.398       .  A
C1013      C1014   1.403       .  A
C1013      H1020   1.084       .  S
C1014      S1016   1.799       .  S
S1015      H1018   1.406       .  S
S1016      H1017   1.407       .  S
C1021      C1022   1.416   1_545  A
C1021      C1026   1.416       .  A
C1022      C1023   1.422       .  A
C1022      H1031   1.083       .  S
C1023      C1024   1.418   1_565  A
C1023      S1027   1.799       .  S
C1024      C1025   1.408       .  A
C1025      C1026   1.408       .  A
C1025      H1032   1.084       .  S
C1026      S1028   1.798       .  S
S1027      H1030   1.404       .  S
S1028      H1029   1.407       .  S
C1033      C1034   1.400       .  A
C1033      C1038   1.425       .  A
C1034      C1035   1.417       .  A
C1034      H1043   1.082       .  S
C1035      C1036   1.439       .  A
C1035      S1039   1.805       .  S
C1036      C1037   1.400       .  A
C1037      C1038   1.407       .  A
C1037      H1044   1.083       .  S
C1038      S1040   1.812       .  S
S1039      H1042   1.400       .  S
S1040      H1041   1.406       .  S
C1045      C1046   1.408       .  A
C1045      C1050   1.405       .  A
C1046      C1047   1.378       .  A
C1046      H1055   1.085       .  S
C1047      C1048   1.388       .  A
C1047      S1051   1.796       .  S
C1048      C1049   1.396       .  A
C1049      C1050   1.381       .  A
C1049      H1056   1.084       .  S
C1050      S1052   1.797       .  S
S1051      H1054   1.407       .  S
S1052      H1053   1.403       .  S
C1057      C1058   1.398       .  A
C1057      C1062   1.408       .  A
C1058      C1059   1.385   1_545  A
C1058      H1067   1.078   1_545  S
C1059      C1060   1.403   1_565  A
C1059      S1063   1.796       .  S
C1060      C1061   1.403       .  A
C1061      C1062   1.404       .  A
C1061      H1068   1.079       .  S
C1062      S1064   1.800       .  S
S1063      H1066   1.402       .  S
S1064      H1065   1.405       .  S
C1069      C1070   1.410       .  A
C1069      C1074   1.405   1_545  A
C1070      C1071   1.391       .  A
C1070      H1079   1.079       .  S
C1071      C1072   1.391       .  A
C1071      S1075   1.800       .  S
C1072      C1073   1.401   1_545  A
C1073      C1074   1.386       .  A
C1073      H1080   1.077       .  S
C1074      S1076   1.795       .  S
S1075      H1078   1.406       .  S
S1076      H1077   1.390       .  S
C1081      C1082   1.418       .  A
C1081      C1086   1.415       .  A
C1082      C1083   1.402       .  A
C1082      H1091   1.083       .  S
C1083      C1084   1.413       .  A
C1083      S1087   1.802       .  S
C1084      C1085   1.419       .  A
C1085      C1086   1.419       .  A
C1085      H1092   1.082       .  S
C1086      S1088   1.797       .  S
S1087      H1090   1.391       .  S
S1088      H1089   1.407       .  S
C1093      C1094   1.404       .  A
C1093      C1098   1.428   1_455  A
C1094      C1095   1.404       .  A
C1094      H1103   1.079       .  S
C1095      C1096   1.414       .  A
C1095      S1099   1.805       .  S
C1096      C1097   1.401   1_455  A
C1097      C1098   1.411       .  A
C1097      H1104   1.084       .  S
C1098      S1100   1.802       .  S
S1099      H1102   1.407       .  S
S1100      H1101   1.388       .  S
C1105      C1106   1.411       .  A
C1105      C1110   1.421   1_455  A
C1106      C1107   1.423       .  A
C1106      H1115   1.082       .  S
C1107      C1108   1.421       .  A
C1107      S1111   1.801       .  S
C1108      C1109   1.408   1_455  A
C1109      C1110   1.412       .  A
C1109      H1116   1.082       .  S
C1110      S1112   1.800       .  S
S1111      H1114   1.407       .  S
S1112      H1113   1.407       .  S
C1117      C1118   1.424       .  A
C1117      C1122   1.411       .  A
C1118      C1119   1.432       .  A
C1118      H1127   1.083       .  S
C1119      C1120   1.421       .  A
C1119      S1123   1.798       .  S
C1120      C1121   1.418       .  A
C1121      C1122   1.396       .  A
C1121      H1128   1.080       .  S
C1122      S1124   1.797       .  S
S1123      H1126   1.406       .  S
S1124      H1125   1.407       .  S
C1129      C1130   1.388       .  A
C1129      C1134   1.415       .  A
C1130      C1131   1.377       .  A
C1130      H1139   1.078       .  S
C1131      C1132   1.408       .  A
C1131      S1135   1.798       .  S
C1132      C1133   1.398       .  A
C1133      C1134   1.396       .  A
C1133      H1140   1.084       .  S
C1134      S1136   1.801       .  S
S1135      H1138   1.390       .  S
S1136      H1137   1.398       .  S
C1141      C1142   1.394       .  A
C1141      C1146   1.424       .  A
C1142      C1143   1.383       .  A
C1142      H1151   1.084       .  S
C1143      C1144   1.408       .  A
C1143      S1147   1.800       .  S
C1144      C1145   1.385       .  A
C1145      C1146   1.379       .  A
C1145      H1152   1.085       .  S
C1146      S1148   1.803       .  S
S1147      H1150   1.400       .  S
S1148      H1149   1.408       .  S
C1153      C1154   1.398       .  A
C1153      C1158   1.414       .  A
C1154      C1155   1.386       .  A
C1154      H1163   1.084       .  S
C1155      C1156   1.405       .  A
C1155      S1159   1.797   1_655  S
C1156      C1157   1.394       .  A
C1157      C1158   1.390       .  A
C1157      H1164   1.084       .  S
C1158      S1160   1.809       .  S
S1159      H1162   1.405       .  S
S1160      H1161   1.407       .  S
C1165      C1166   1.389   1_655  A
C1165      C1170   1.395       .  A
C1166      C1167   1.386       .  A
C1166      H1175   1.082       .  S
C1167      C1168   1.416   1_455  A
C1167      S1171   1.798       .  S
C1168      C1169   1.396       .  A
C1169      C1170   1.389       .  A
C1169      H1176   1.069       .  S
C1170      S1172   1.795       .  S
S1171      H1174   1.402       .  S
S1172      H1173   1.402       .  S
C1177      C1178   1.410   1_556  A
C1177      C1182   1.422       .  A
C1178      C1179   1.424       .  A
C1178      H1187   1.084       .  S
C1179      C1180   1.429       .  A
C1179      S1183   1.795       .  S
C1180      C1181   1.408   1_554  A
C1181      C1182   1.411       .  A
C1181      H1188   1.082       .  S
C1182      S1184   1.802       .  S
S1183      H1186   1.382       .  S
S1184      H1185   1.407       .  S
C1189      C1190   1.408   1_556  A
C1189      C1194   1.425       .  A
C1190      C1191   1.409       .  A
C1190      H1199   1.080       .  S
C1191      C1192   1.418   1_554  A
C1191      S1195   1.803       .  S
C1192      C1193   1.408       .  A
C1193      C1194   1.424       .  A
C1193      H1200   1.082       .  S
C1194      S1196   1.798       .  S
S1195      H1198   1.407       .  S
S1196      H1197   1.406       .  S
C1201      C1202   1.405   1_545  A
C1201      C1206   1.413       .  A
C1202      C1203   1.423       .  A
C1202      H1211   1.083       .  S
C1203      C1204   1.434   1_565  A
C1203      S1207   1.804       .  S
C1204      C1205   1.399       .  A
C1205      C1206   1.402       .  A
C1205      H1212   1.082       .  S
C1206      S1208   1.806       .  S
S1207      H1210   1.399       .  S
S1208      H1209   1.407       .  S
C1213      C1214   1.409   1_565  A
C1213      C1218   1.429       .  A
C1214      C1215   1.415       .  A
C1214      H1223   1.084       .  S
C1215      C1216   1.418   1_545  A
C1215      S1219   1.801       .  S
C1216      C1217   1.401       .  A
C1217      C1218   1.402       .  A
C1217      H1224   1.085       .  S
C1218      S1220   1.801       .  S
S1219      H1222   1.406       .  S
S1220      H1221   1.385       .  S
C1225      C1226   1.414   1_554  A
C1225      C1230   1.418       .  A
C1226      C1227   1.422       .  A
C1226      H1235   1.083       .  S
C1227      C1228   1.421   1_556  A
C1227      S1231   1.799       .  S
C1228      C1229   1.402       .  A
C1229      C1230   1.399       .  A
C1229      H1236   1.084       .  S
C1230      S1232   1.797       .  S
S1231      H1234   1.406       .  S
S1232      H1233   1.407       .  S
C1237      C1238   1.407       .  A
C1237      C1242   1.411   1_554  A
C1238      C1239   1.407       .  A
C1238      H1247   1.083       .  S
C1239      C1240   1.418       .  A
C1239      S1243   1.801       .  S
C1240      C1241   1.414   1_554  A
C1241      C1242   1.406       .  A
C1241      H1248   1.083       .  S
C1242      S1244   1.801       .  S
S1243      H1246   1.403       .  S
S1244      H1245   1.405       .  S
C1249      C1250   1.410   1_545  A
C1249      C1254   1.415       .  A
C1250      C1251   1.420       .  A
C1250      H1259   1.083       .  S
C1251      C1252   1.422   1_565  A
C1251      S1255   1.800       .  S
C1252      C1253   1.413       .  A
C1253      C1254   1.406       .  A
C1253      H1260   1.080       .  S
C1254      S1256   1.803       .  S
S1255      H1258   1.391       .  S
S1256      H1257   1.407       .  S
C1261      C1262   1.404   1_545  A
C1261      C1266   1.409       .  A
C1262      C1263   1.406       .  A
C1262      H1271   1.085       .  S
C1263      C1264   1.426   1_565  A
C1263      S1267   1.808       .  S
C1264      C1265   1.411       .  A
C1265      C1266   1.414       .  A
C1265      H1272   1.082       .  S
C1266      S1268   1.803       .  S
S1267      H1270   1.395       .  S
S1268      H1269   1.406       .  S
C1273      C1274   1.407       .  A
C1273      C1278   1.409       .  A
C1274      C1275   1.404       .  A
C1274      H1283   1.085       .  S
C1275      C1276   1.421       .  A
C1275      S1279   1.808       .  S
C1276      C1277   1.406       .  A
C1277      C1278   1.405       .  A
C1277      H1284   1.079       .  S
C1278      S1280   1.792       .  S
S1279      H1282   1.398       .  S
S1280      H1281   1.405       .  S
C1285      C1286   1.416       .  A
C1285      C1290   1.418       .  A
C1286      C1287   1.411       .  A
C1286      H1295   1.073       .  S
C1287      C1288   1.409       .  A
C1287      S1291   1.800       .  S
C1288      C1289   1.413       .  A
C1289      C1290   1.406       .  A
C1289      H1296   1.085       .  S
C1290      S1292   1.805       .  S
S1291      H1294   1.406       .  S
S1292      H1293   1.395       .  S
C1297      C1298   1.408   1_545  A
C1297      C1302   1.416       .  A
C1298      C1299   1.420       .  A
C1298      H1307   1.082       .  S
C1299      C1300   1.421   1_565  A
C1299      S1303   1.798       .  S
C1300      C1301   1.409       .  A
C1301      C1302   1.405       .  A
C1301      H1308   1.082       .  S
C1302      S1304   1.804       .  S
S1303      H1306   1.406       .  S
S1304      H1305   1.407       .  S
C1309      C1310   1.419   1_565  A
C1309      C1314   1.412       .  A
C1310      C1311   1.422       .  A
C1310      H1319   1.083       .  S
C1311      C1312   1.414   1_545  A
C1311      S1315   1.792       .  S
C1312      C1313   1.413       .  A
C1313      C1314   1.402       .  A
C1313      H1320   1.083       .  S
C1314      S1316   1.802       .  S
S1315      H1318   1.405       .  S
S1316      H1317   1.406       .  S
C1321      C1322   1.404       .  A
C1321      C1326   1.413   1_565  A
C1322      C1323   1.402       .  A
C1322      H1331   1.078       .  S
C1323      C1324   1.410       .  A
C1323      S1327   1.800       .  S
C1324      C1325   1.398   1_565  A
C1325      C1326   1.389       .  A
C1325      H1332   1.084       .  S
C1326      S1328   1.793       .  S
S1327      H1330   1.403       .  S
S1328      H1329   1.400       .  S
C1333      C1334   1.398       .  A
C1333      C1338   1.408   1_545  A
C1334      C1335   1.396       .  A
C1334      H1343   1.078       .  S
C1335      C1336   1.409       .  A
C1335      S1339   1.802       .  S
C1336      C1337   1.395   1_545  A
C1337      C1338   1.389       .  A
C1337      H1344   1.083       .  S
C1338      S1340   1.798       .  S
S1339      H1342   1.405       .  S
S1340      H1341   1.407       .  S
C1345      C1346   1.405       .  A
C1345      C1350   1.410   1_554  A
C1346      C1347   1.406       .  A
C1346      H1355   1.085       .  S
C1347      C1348   1.428       .  A
C1347      S1351   1.805       .  S
C1348      C1349   1.413   1_554  A
C1349      C1350   1.415       .  A
C1349      H1356   1.083       .  S
C1350      S1352   1.798       .  S
S1351      H1354   1.389       .  S
S1352      H1353   1.407       .  S
C1357      C1358   1.420       .  A
C1357      C1362   1.413   1_554  A
C1358      C1359   1.416       .  A
C1358      H1367   1.082       .  S
C1359      C1360   1.411   1_554  A
C1359      S1363   1.798       .  S
C1360      C1361   1.413       .  A
C1361      C1362   1.397       .  A
C1361      H1368   1.085       .  S
C1362      S1364   1.804       .  S
S1363      H1366   1.405       .  S
S1364      H1365   1.396       .  S
C1369      C1370   1.413       .  A
C1369      C1374   1.423       .  A
C1370      C1371   1.431       .  A
C1370      H1379   1.083       .  S
C1371      C1372   1.432       .  A
C1371      S1375   1.803       .  S
C1372      C1373   1.400       .  A
C1373      C1374   1.403       .  A
C1373      H1380   1.077       .  S
C1374      S1376   1.808       .  S
S1375      H1378   1.401       .  S
S1376      H1377   1.408       .  S
C1381      C1382   1.409       .  A
C1381      C1386   1.422       .  A
C1382      C1383   1.413       .  A
C1382      H1391   1.078       .  S
C1383      C1384   1.420       .  A
C1383      S1387   1.805       .  S
C1384      C1385   1.407       .  A
C1385      C1386   1.412       .  A
C1385      H1392   1.085       .  S
C1386      S1388   1.796       .  S
S1387      H1390   1.403       .  S
S1388      H1389   1.400       .  S
C1393      C1394   1.401       .  A
C1393      C1398   1.419       .  A
C1394      C1395   1.378       .  A
C1394      H1403   1.080       .  S
C1395      C1396   1.408       .  A
C1395      S1399   1.814       .  S
C1396      C1397   1.399       .  A
C1397      C1398   1.397       .  A
C1397      H1404   1.084       .  S
C1398      S1400   1.800       .  S
S1399      H1402   1.406       .  S
S1400      H1401   1.407       .  S
C1405      C1406   1.395       .  A
C1405      C1410   1.397   1_556  A
C1406      C1407   1.390       .  A
C1406      H1415   1.079       .  S
C1407      C1408   1.416       .  A
C1407      S1411   1.801       .  S
C1408      C1409   1.394   1_556  A
C1409      C1410   1.383       .  A
C1409      H1416   1.082       .  S
C1410      S1412   1.775       .  S
S1411      H1414   1.407       .  S
S1412      H1413   1.404       .  S
C1417      C1418   1.403       .  A
C1417      C1422   1.404   1_556  A
C1418      C1419   1.386       .  A
C1418      H1427   1.082       .  S
C1419      C1420   1.403       .  A
C1419      S1423   1.804       .  S
C1420      C1421   1.398   1_556  A
C1421      C1422   1.384       .  A
C1421      H1428   1.083       .  S
C1422      S1424   1.795       .  S
S1423      H1426   1.404       .  S
S1424      H1425   1.407       .  S
C1429      C1430   1.418       .  A
C1429      C1434   1.412   1_545  A
C1430      C1431   1.420       .  A
C1430      H1439   1.083       .  S
C1431      C1432   1.416   1_545  A
C1431      S1435   1.796       .  S
C1432      C1433   1.410       .  A
C1433      C1434   1.400       .  A
C1433      H1440   1.085       .  S
C1434      S1436   1.791       .  S
S1435      H1438   1.405       .  S
S1436      H1437   1.406       .  S
C1441      C1442   1.418       .  A
C1441      C1446   1.415   1_545  A
C1442      C1443   1.402       .  A
C1442      H1451   1.083       .  S
C1443      C1444   1.411       .  A
C1443      S1447   1.805       .  S
C1444      C1445   1.420   1_545  A
C1445      C1446   1.418       .  A
C1445      H1452   1.081       .  S
C1446      S1448   1.799       .  S
S1447      H1450   1.387       .  S
S1448      H1449   1.407       .  S
C1453      C1454   1.405       .  A
C1453      C1458   1.426       .  A
C1454      C1455   1.409       .  A
C1454      H1463   1.085       .  S
C1455      C1456   1.424       .  A
C1455      S1459   1.796       .  S
C1456      C1457   1.405       .  A
C1457      C1458   1.413       .  A
C1457      H1464   1.080       .  S
C1458      S1460   1.806       .  S
S1459      H1462   1.399       .  S
S1460      H1461   1.402       .  S
C1465      C1466   1.402       .  A
C1465      C1470   1.427       .  A
C1466      C1467   1.399       .  A
C1466      H1475   1.083       .  S
C1467      C1468   1.420       .  A
C1467      S1471   1.807       .  S
C1468      C1469   1.407       .  A
C1469      C1470   1.420       .  A
C1469      H1476   1.083       .  S
C1470      S1472   1.799       .  S
S1471      H1474   1.408       .  S
S1472      H1473   1.399       .  S
C1477      C1478   1.396       .  A
C1477      C1482   1.407       .  A
C1478      C1479   1.378       .  A
C1478      H1487   1.079       .  S
C1479      C1480   1.408       .  A
C1479      S1483   1.802       .  S
C1480      C1481   1.403       .  A
C1481      C1482   1.395       .  A
C1481      H1488   1.078       .  S
C1482      S1484   1.805       .  S
S1483      H1486   1.391       .  S
S1484      H1485   1.397       .  S
C1489      C1490   1.403   1_545  A
C1489      C1494   1.404       .  A
C1490      C1491   1.390       .  A
C1490      H1499   1.084       .  S
C1491      C1492   1.404   1_565  A
C1491      S1495   1.782       .  S
C1492      C1493   1.401       .  A
C1493      C1494   1.383       .  A
C1493      H1500   1.078       .  S
C1494      S1496   1.792       .  S
S1495      H1498   1.407       .  S
S1496      H1497   1.405       .  S
C1501      C1502   1.408   1_545  A
C1501      C1506   1.409       .  A
C1502      C1503   1.382       .  A
C1502      H1511   1.081       .  S
C1503      C1504   1.398   1_565  A
C1503      S1507   1.806       .  S
C1504      C1505   1.396       .  A
C1505      C1506   1.386       .  A
C1505      H1512   1.085       .  S
C1506      S1508   1.792       .  S
S1507      H1510   1.402       .  S
S1508      H1509   1.401       .  S
C1513      C1514   1.416   1_554  A
C1513      C1518   1.427       .  A
C1514      C1515   1.422       .  A
C1514      H1523   1.081       .  S
C1515      C1516   1.417   1_556  A
C1515      S1519   1.798       .  S
C1516      C1517   1.404       .  A
C1517      C1518   1.403       .  A
C1517      H1524   1.085       .  S
C1518      S1520   1.798       .  S
S1519      H1522   1.406       .  S
S1520      H1521   1.380       .  S
C1525      C1526   1.405       .  A
C1525      C1530   1.412   1_556  A
C1526      C1527   1.410       .  A
C1526      H1535   1.085       .  S
C1527      C1528   1.428       .  A
C1527      S1531   1.806       .  S
C1528      C1529   1.409   1_556  A
C1529      C1530   1.412       .  A
C1529      H1536   1.083       .  S
C1530      S1532   1.797       .  S
S1531      H1534   1.396       .  S
S1532      H1533   1.402       .  S
C1537      C1538   1.420       .  A
C1537      C1542   1.415       .  A
C1538      C1539   1.420       .  A
C1538      H1547   1.080       .  S
C1539      C1540   1.412       .  A
C1539      S1543   1.797       .  S
C1540      C1541   1.413       .  A
C1541      C1542   1.402       .  A
C1541      H1548   1.085       .  S
C1542      S1544   1.800       .  S
S1543      H1546   1.405       .  S
S1544      H1545   1.393       .  S
C1549      C1550   1.408       .  A
C1549      C1554   1.414       .  A
C1550      C1551   1.414       .  A
C1550      H1559   1.084       .  S
C1551      C1552   1.420       .  A
C1551      S1555   1.797       .  S
C1552      C1553   1.408       .  A
C1553      C1554   1.402       .  A
C1553      H1560   1.078       .  S
C1554      S1556   1.804       .  S
S1555      H1558   1.400       .  S
S1556      H1557   1.407       .  S
C1561      C1562   1.410       .  A
C1561      C1566   1.418       .  A
C1562      C1563   1.388       .  A
C1562      H1571   1.083       .  S
C1563      C1564   1.398       .  A
C1563      S1567   1.796       .  S
C1564      C1565   1.400       .  A
C1565      C1566   1.382       .  A
C1565      H1572   1.082       .  S
C1566      S1568   1.812       .  S
S1567      H1570   1.406       .  S
S1568      H1569   1.390       .  S
C1573      C1574   1.396       .  A
C1573      C1578   1.407       .  A
C1574      C1575   1.389       .  A
C1574      H1583   1.081       .  S
C1575      C1576   1.414       .  A
C1575      S1579   1.810       .  S
C1576      C1577   1.400       .  A
C1577      C1578   1.379       .  A
C1577      H1584   1.084       .  S
C1578      S1580   1.797       .  S
S1579      H1582   1.406       .  S
S1580      H1581   1.395       .  S
C1585      C1586   1.403   1_556  A
C1585      C1590   1.397       .  A
C1586      C1587   1.394       .  A
C1586      H1595   1.083       .  S
C1587      C1588   1.411   1_554  A
C1587      S1591   1.800       .  S
C1588      C1589   1.394       .  A
C1589      C1590   1.388       .  A
C1589      H1596   1.072       .  S
C1590      S1592   1.800       .  S
S1591      H1594   1.394       .  S
S1592      H1593   1.404       .  S
C1597      C1598   1.398       .  A
C1597      C1602   1.423   1_556  A
C1598      C1599   1.399       .  A
C1598      H1607   1.084       .  S
C1599      C1600   1.419   1_556  A
C1599      S1603   1.805       .  S
C1600      C1601   1.388       .  A
C1601      C1602   1.381       .  A
C1601      H1608   1.084       .  S
C1602      S1604   1.811       .  S
S1603      H1606   1.400       .  S
S1604      H1605   1.407       .  S
C1609      C1610   1.409   1_554  A
C1609      C1614   1.421       .  A
C1610      C1611   1.425       .  A
C1610      H1619   1.082       .  S
C1611      C1612   1.423   1_556  A
C1611      S1615   1.800       .  S
C1612      C1613   1.402       .  A
C1613      C1614   1.403       .  A
C1613      H1620   1.079       .  S
C1614      S1616   1.803       .  S
S1615      H1618   1.407       .  S
S1616      H1617   1.407       .  S
C1621      C1622   1.409   1_554  A
C1621      C1626   1.424       .  A
C1622      C1623   1.414       .  A
C1622      H1631   1.080       .  S
C1623      C1624   1.420   1_556  A
C1623      S1627   1.802       .  S
C1624      C1625   1.408       .  A
C1625      C1626   1.424       .  A
C1625      H1632   1.082       .  S
C1626      S1628   1.799       .  S
S1627      H1630   1.407       .  S
S1628      H1629   1.407       .  S
C1633      C1634   1.413   1_455  A
C1633      C1638   1.428       .  A
C1634      C1635   1.419       .  A
C1634      H1643   1.082       .  S
C1635      C1636   1.418   1_655  A
C1635      S1639   1.802       .  S
C1636      C1637   1.401       .  A
C1637      C1638   1.404       .  A
C1637      H1644   1.085       .  S
C1638      S1640   1.800       .  S
S1639      H1642   1.406       .  S
S1640      H1641   1.380       .  S
C1645      C1646   1.409       .  A
C1645      C1650   1.411   1_455  A
C1646      C1647   1.418       .  A
C1646      H1655   1.083       .  S
C1647      C1648   1.417       .  A
C1647      S1651   1.798       .  S
C1648      C1649   1.409   1_455  A
C1649      C1650   1.403       .  A
C1649      H1656   1.080       .  S
C1650      S1652   1.801       .  S
S1651      H1654   1.407       .  S
S1652      H1653   1.407       .  S
C1657      C1658   1.401   1_556  A
C1657      C1662   1.419       .  A
C1658      C1659   1.417       .  A
C1658      H1667   1.083       .  S
C1659      C1660   1.427       .  A
C1659      S1663   1.801       .  S
C1660      C1661   1.400   1_554  A
C1661      C1662   1.405       .  A
C1661      H1668   1.083       .  S
C1662      S1664   1.808       .  S
S1663      H1666   1.407       .  S
S1664      H1665   1.407       .  S
C1669      C1670   1.411       .  A
C1669      C1674   1.429   1_455  A
C1670      C1671   1.417       .  A
C1670      H1679   1.083       .  S
C1671      C1672   1.414   1_455  A
C1671      S1675   1.788       .  S
C1672      C1673   1.407       .  A
C1673      C1674   1.407       .  A
C1673      H1680   1.084       .  S
C1674      S1676   1.807       .  S
S1675      H1678   1.406       .  S
S1676      H1677   1.397       .  S
C1681      C1682   1.408   1_556  A
C1681      C1686   1.424       .  A
C1682      C1683   1.411       .  A
C1682      H1691   1.084       .  S
C1683      C1684   1.422       .  A
C1683      S1687   1.802       .  S
C1684      C1685   1.402   1_554  A
C1685      C1686   1.403       .  A
C1685      H1692   1.082       .  S
C1686      S1688   1.808       .  S
S1687      H1690   1.404       .  S
S1688      H1689   1.401       .  S
C1693      C1694   1.409   1_455  A
C1693      C1698   1.419       .  A
C1694      C1695   1.422       .  A
C1694      H1703   1.083       .  S
C1695      C1696   1.427   1_655  A
C1695      S1699   1.796       .  S
C1696      C1697   1.408       .  A
C1697      C1698   1.407       .  A
C1697      H1704   1.074       .  S
C1698      S1700   1.806       .  S
S1699      H1702   1.401       .  S
S1700      H1701   1.407       .  S
C1705      C1706   1.409       .  A
C1705      C1710   1.420       .  A
C1706      C1707   1.413       .  A
C1706      H1715   1.083       .  S
C1707      C1708   1.421       .  A
C1707      S1711   1.802       .  S
C1708      C1709   1.410       .  A
C1709      C1710   1.415       .  A
C1709      H1716   1.082       .  S
C1710      S1712   1.801       .  S
S1711      H1714   1.407       .  S
S1712      H1713   1.400       .  S
C1717      C1718   1.414       .  A
C1717      C1722   1.411       .  A
C1718      C1719   1.397       .  A
C1718      H1727   1.084       .  S
C1719      C1720   1.412       .  A
C1719      S1723   1.805       .  S
C1720      C1721   1.422       .  A
C1721      C1722   1.419       .  A
C1721      H1728   1.079       .  S
C1722      S1724   1.798       .  S
S1723      H1726   1.394       .  S
S1724      H1725   1.404       .  S
C1729      C1730   1.406       .  A
C1729      C1734   1.422   1_455  A
C1730      C1731   1.424       .  A
C1730      H1739   1.083       .  S
C1731      C1732   1.431       .  A
C1731      S1735   1.803       .  S
C1732      C1733   1.400   1_455  A
C1733      C1734   1.405       .  A
C1733      H1740   1.079       .  S
C1734      S1736   1.810       .  S
S1735      H1738   1.396       .  S
S1736      H1737   1.406       .  S
C1741      C1742   1.409       .  A
C1741      C1746   1.421   1_455  A
C1742      C1743   1.412       .  A
C1742      H1751   1.084       .  S
C1743      C1744   1.427       .  A
C1743      S1747   1.805       .  S
C1744      C1745   1.411   1_455  A
C1745      C1746   1.416       .  A
C1745      H1752   1.079       .  S
C1746      S1748   1.799       .  S
S1747      H1750   1.390       .  S
S1748      H1749   1.407       .  S
C1753      C1754   1.405   1_455  A
C1753      C1758   1.409       .  A
C1754      C1755   1.385       .  A
C1754      H1763   1.084       .  S
C1755      C1756   1.405       .  A
C1755      S1759   1.804       .  S
C1756      C1757   1.400   1_655  A
C1757      C1758   1.380       .  A
C1757      H1764   1.082       .  S
C1758      S1760   1.811       .  S
S1759      H1762   1.407       .  S
S1760      H1761   1.407       .  S
C1765      C1766   1.392       .  A
C1765      C1770   1.390       .  A
C1766      C1767   1.391       .  A
C1766      H1775   1.084       .  S
C1767      C1768   1.423       .  A
C1767      S1771   1.812       .  S
C1768      C1769   1.399       .  A
C1769      C1770   1.371       .  A
C1769      H1776   1.078       .  S
C1770      S1772   1.785       .  S
S1771      H1774   1.408       .  S
S1772      H1773   1.406   1_655  S
C1777      C1778   1.413       .  A
C1777      C1782   1.420       .  A
C1778      C1779   1.430       .  A
C1778      H1787   1.083       .  S
C1779      C1780   1.432       .  A
C1779      S1783   1.802       .  S
C1780      C1781   1.412       .  A
C1781      C1782   1.416       .  A
C1781      H1788   1.074       .  S
C1782      S1784   1.804       .  S
S1783      H1786   1.395       .  S
S1784      H1785   1.407       .  S
C1789      C1790   1.415       .  A
C1789      C1794   1.413       .  A
C1790      C1791   1.400       .  A
C1790      H1799   1.084       .  S
C1791      C1792   1.413       .  A
C1791      S1795   1.803       .  S
C1792      C1793   1.420       .  A
C1793      C1794   1.421       .  A
C1793      H1800   1.080       .  S
C1794      S1796   1.794       .  S
S1795      H1798   1.400       .  S
S1796      H1797   1.406       .  S
C1801      C1802   1.409   1_554  A
C1801      C1806   1.418       .  A
C1802      C1803   1.426       .  A
C1802      H1811   1.083       .  S
C1803      C1804   1.429   1_556  A
C1803      S1807   1.802       .  S
C1804      C1805   1.402       .  A
C1805      C1806   1.399       .  A
C1805      H1812   1.073       .  S
C1806      S1808   1.807       .  S
S1807      H1810   1.398       .  S
S1808      H1809   1.407       .  S
C1813      C1814   1.403       .  A
C1813      C1818   1.421   1_554  A
C1814      C1815   1.407       .  A
C1814      H1823   1.083       .  S
C1815      C1816   1.415       .  A
C1815      S1819   1.794       .  S
C1816      C1817   1.407   1_554  A
C1817      C1818   1.408       .  A
C1817      H1824   1.083       .  S
C1818      S1820   1.803       .  S
S1819      H1822   1.400       .  S
S1820      H1821   1.399       .  S
C1825      C1826   1.408       .  A
C1825      C1830   1.409       .  A
C1826      C1827   1.387       .  A
C1826      H1835   1.085       .  S
C1827      C1828   1.404       .  A
C1827      S1831   1.799       .  S
C1828      C1829   1.405       .  A
C1829      C1830   1.404       .  A
C1829      H1836   1.083       .  S
C1830      S1832   1.786       .  S
S1831      H1834   1.407       .  S
S1832      H1833   1.407       .  S
C1837      C1838   1.402       .  A
C1837      C1842   1.398       .  A
C1838      C1839   1.392   1_554  A
C1838      H1847   1.080   1_554  S
C1839      C1840   1.407       .  A
C1839      S1843   1.793       .  S
C1840      C1841   1.417   1_556  A
C1841      C1842   1.383       .  A
C1841      H1848   1.083       .  S
C1842      S1844   1.806       .  S
S1843      H1846   1.407       .  S
S1844      H1845   1.407       .  S
C1849      C1850   1.396       .  A
C1849      C1854   1.416   1_554  A
C1850      C1851   1.384       .  A
C1850      H1859   1.084       .  S
C1851      C1852   1.416       .  A
C1851      S1855   1.807       .  S
C1852      C1853   1.399   1_554  A
C1853      C1854   1.388       .  A
C1853      H1860   1.084       .  S
C1854      S1856   1.806       .  S
S1855      H1858   1.404       .  S
S1856      H1857   1.405       .  S
C1861      C1862   1.410       .  A
C1861      C1866   1.413       .  A
C1862      C1863   1.420       .  A
C1862      H1871   1.083       .  S
C1863      C1864   1.428       .  A
C1863      S1867   1.807       .  S
C1864      C1865   1.414       .  A
C1865      C1866   1.413       .  A
C1865      H1872   1.080       .  S
C1866      S1868   1.803       .  S
S1867      H1870   1.392       .  S
S1868      H1869   1.407       .  S
C1873      C1874   1.418       .  A
C1873      C1878   1.414   1_455  A
C1874      C1875   1.418       .  A
C1874      H1883   1.083       .  S
C1875      C1876   1.414       .  A
C1875      S1879   1.799       .  S
C1876      C1877   1.409   1_455  A
C1877      C1878   1.404       .  A
C1877      H1884   1.084       .  S
C1878      S1880   1.799       .  S
S1879      H1882   1.405       .  S
S1880      H1881   1.406       .  S
C1885      C1886   1.416   1_455  A
C1885      C1890   1.423       .  A
C1886      C1887   1.422       .  A
C1886      H1895   1.082       .  S
C1887      C1888   1.416   1_655  A
C1887      S1891   1.799       .  S
C1888      C1889   1.404       .  A
C1889      C1890   1.408       .  A
C1889      H1896   1.084       .  S
C1890      S1892   1.796       .  S
S1891      H1894   1.407       .  S
S1892      H1893   1.408       .  S
C1897      C1898   1.404       .  A
C1897      C1902   1.417       .  A
C1898      C1899   1.416       .  A
C1898      H1907   1.083       .  S
C1899      C1900   1.424       .  A
C1899      S1903   1.799       .  S
C1900      C1901   1.410       .  A
C1901      C1902   1.408       .  A
C1901      H1908   1.083       .  S
C1902      S1904   1.804       .  S
S1903      H1906   1.407       .  S
S1904      H1905   1.407       .  S
C1909      C1910   1.407       .  A
C1909      C1914   1.407       .  A
C1910      C1911   1.379       .  A
C1910      H1919   1.083       .  S
C1911      C1912   1.403       .  A
C1911      S1915   1.803       .  S
C1912      C1913   1.406       .  A
C1913      C1914   1.386       .  A
C1913      H1920   1.084       .  S
C1914      S1916   1.802       .  S
S1915      H1918   1.407       .  S
S1916      H1917   1.397       .  S
C1921      C1922   1.390   1_455  A
C1921      C1926   1.411       .  A
C1922      C1923   1.376       .  A
C1922      H1931   1.081       .  S
C1923      C1924   1.403   1_655  A
C1923      S1927   1.799       .  S
C1924      C1925   1.390       .  A
C1925      C1926   1.381       .  A
C1925      H1932   1.084       .  S
C1926      S1928   1.802       .  S
S1927      H1930   1.406       .  S
S1928      H1929   1.398       .  S
C1933      C1934   1.403       .  A
C1933      C1938   1.415       .  A
C1934      C1935   1.395       .  A
C1934      H1943   1.069       .  S
C1935      C1936   1.403       .  A
C1935      S1939   1.802       .  S
C1936      C1937   1.405       .  A
C1937      C1938   1.376       .  A
C1937      H1944   1.084       .  S
C1938      S1940   1.804       .  S
S1939      H1942   1.387       .  S
S1940      H1941   1.408       .  S
C1945      C1946   1.421   1_554  A
C1945      C1950   1.416       .  A
C1946      C1947   1.425       .  A
C1946      H1955   1.081       .  S
C1947      C1948   1.416   1_556  A
C1947      S1951   1.797       .  S
C1948      C1949   1.415       .  A
C1949      C1950   1.412       .  A
C1949      H1956   1.083       .  S
C1950      S1952   1.803       .  S
S1951      H1954   1.404       .  S
S1952      H1953   1.406       .  S
C1957      C1958   1.413   1_556  A
C1957      C1962   1.425       .  A
C1958      C1959   1.426       .  A
C1958      H1967   1.084       .  S
C1959      C1960   1.430       .  A
C1959      S1963   1.803       .  S
C1960      C1961   1.398   1_554  A
C1961      C1962   1.406       .  A
C1961      H1968   1.081       .  S
C1962      S1964   1.790       .  S
S1963      H1966   1.397       .  S
S1964      H1965   1.408       .  S
C1969      C1970   1.409       .  A
C1969      C1974   1.421       .  A
C1970      C1971   1.415       .  A
C1970      H1979   1.083       .  S
C1971      C1972   1.423       .  A
C1971      S1975   1.803       .  S
C1972      C1973   1.415       .  A
C1973      C1974   1.425       .  A
C1973      H1980   1.083       .  S
C1974      S1976   1.800       .  S
S1975      H1978   1.407       .  S
S1976      H1977   1.405       .  S
C1981      C1982   1.405       .  A
C1981      C1986   1.415       .  A
C1982      C1983   1.405       .  A
C1982      H1991   1.084       .  S
C1983      C1984   1.424       .  A
C1983      S1987   1.808       .  S
C1984      C1985   1.409       .  A
C1985      C1986   1.411       .  A
C1985      H1992   1.084       .  S
C1986      S1988   1.796       .  S
S1987      H1990   1.401       .  S
S1988      H1989   1.405       .  S
C1993      C1994   1.402       .  A
C1993      C1998   1.410       .  A
C1994      C1995   1.384       .  A
C1994      H2003   1.071       .  S
C1995      C1996   1.400       .  A
C1995      S1999   1.803       .  S
C1996      C1997   1.409       .  A
C1997      C1998   1.406       .  A
C1997      H2004   1.084       .  S
C1998      S2000   1.804       .  S
S1999      H2002   1.400       .  S
S2000      H2001   1.402       .  S
C2005      C2006   1.393       .  A
C2005      C2010   1.416       .  A
C2006      C2007   1.382       .  A
C2006      H2015   1.081       .  S
C2007      C2008   1.419       .  A
C2007      S2011   1.813       .  S
C2008      C2009   1.396       .  A
C2009      C2010   1.391       .  A
C2009      H2016   1.085       .  S
C2010      S2012   1.803       .  S
S2011      H2014   1.407       .  S
S2012      H2013   1.408       .  S
C2017      C2018   1.409   1_556  A
C2017      C2022   1.410       .  A
C2018      C2019   1.381       .  A
C2018      H2027   1.086       .  S
C2019      C2020   1.395   1_554  A
C2019      S2023   1.806       .  S
C2020      C2021   1.407       .  A
C2021      C2022   1.402       .  A
C2021      H2028   1.083       .  S
C2022      S2024   1.796       .  S
S2023      H2026   1.405       .  S
S2024      H2025   1.406       .  S
C2029      C2030   1.404       .  A
C2029      C2034   1.407       .  A
C2030      C2031   1.391       .  A
C2030      H2039   1.082   1_556  S
C2031      C2032   1.406       .  A
C2031      S2035   1.806   1_556  S
C2032      C2033   1.399       .  A
C2033      C2034   1.393       .  A
C2033      H2040   1.084       .  S
C2034      S2036   1.799       .  S
S2035      H2038   1.406       .  S
S2036      H2037   1.408       .  S
C2041      C2042   1.406       .  A
C2041      C2046   1.430       .  A
C2042      C2043   1.418       .  A
C2042      H2051   1.083       .  S
C2043      C2044   1.429       .  A
C2043      S2047   1.787       .  S
C2044      C2045   1.404       .  A
C2045      C2046   1.414       .  A
C2045      H2052   1.079       .  S
C2046      S2048   1.795       .  S
S2047      H2050   1.401       .  S
S2048      H2049   1.398       .  S
C2053      C2054   1.404       .  A
C2053      C2058   1.422       .  A
C2054      C2055   1.421       .  A
C2054      H2063   1.083       .  S
C2055      C2056   1.433       .  A
C2055      S2059   1.799       .  S
C2056      C2057   1.403       .  A
C2057      C2058   1.404       .  A
C2057      H2064   1.083       .  S
C2058      S2060   1.805       .  S
S2059      H2062   1.385       .  S
S2060      H2061   1.407       .  S
C2065      C2066   1.408       .  A
C2065      C2070   1.412       .  A
C2066      C2067   1.414       .  A
C2066      H2075   1.084       .  S
C2067      C2068   1.430       .  A
C2067      S2071   1.802       .  S
C2068      C2069   1.410       .  A
C2069      C2070   1.417       .  A
C2069      H2076   1.084       .  S
C2070      S2072   1.786       .  S
S2071      H2074   1.390       .  S
S2072      H2073   1.406       .  S
C2077      C2078   1.410       .  A
C2077      C2082   1.424       .  A
C2078      C2079   1.418       .  A
C2078      H2087   1.083       .  S
C2079      C2080   1.428       .  A
C2079      S2083   1.803       .  S
C2080      C2081   1.409       .  A
C2081      C2082   1.421       .  A
C2081      H2088   1.081       .  S
C2082      S2084   1.807       .  S
S2083      H2086   1.388       .  S
S2084      H2085   1.406       .  S
C2089      C2090   1.420       .  A
C2089      C2094   1.413       .  A
C2090      C2091   1.404       .  A
C2090      H2099   1.084       .  S
C2091      C2092   1.413       .  A
C2091      S2095   1.804       .  S
C2092      C2093   1.419       .  A
C2093      C2094   1.422       .  A
C2093      H2100   1.081       .  S
C2094      S2096   1.789       .  S
S2095      H2098   1.396       .  S
S2096      H2097   1.406       .  S
C2101      C2102   1.408       .  A
C2101      C2106   1.420       .  A
C2102      C2103   1.424       .  A
C2102      H2111   1.083       .  S
C2103      C2104   1.432       .  A
C2103      S2107   1.806       .  S
C2104      C2105   1.402       .  A
C2105      C2106   1.406       .  A
C2105      H2112   1.083       .  S
C2106      S2108   1.807       .  S
S2107      H2110   1.401       .  S
S2108      H2109   1.407       .  S
C2113      C2114   1.410       .  A
C2113      C2118   1.415       .  A
C2114      C2115   1.414       .  A
C2114      H2123   1.079       .  S
C2115      C2116   1.414       .  A
C2115      S2119   1.786       .  S
C2116      C2117   1.414       .  A
C2117      C2118   1.411       .  A
C2117      H2124   1.083       .  S
C2118      S2120   1.803       .  S
S2119      H2122   1.406       .  S
S2120      H2121   1.406       .  S
C2125      C2126   1.405       .  A
C2125      C2130   1.417       .  A
C2126      C2127   1.406       .  A
C2126      H2135   1.085       .  S
C2127      C2128   1.428       .  A
C2127      S2131   1.807       .  S
C2128      C2129   1.411       .  A
C2129      C2130   1.416       .  A
C2129      H2136   1.083       .  S
C2130      S2132   1.801       .  S
S2131      H2134   1.393       .  S
S2132      H2133   1.406       .  S
C2137      C2138   1.401       .  A
C2137      C2142   1.395       .  A
C2138      C2139   1.389       .  A
C2138      H2147   1.080       .  S
C2139      C2140   1.413       .  A
C2139      S2143   1.802       .  S
C2140      C2141   1.413       .  A
C2141      C2142   1.391       .  A
C2141      H2148   1.083       .  S
C2142      S2144   1.801       .  S
S2143      H2146   1.394       .  S
S2144      H2145   1.408       .  S
C2149      C2150   1.406       .  A
C2149      C2154   1.446       .  A
C2150      C2151   1.417       .  A
C2150      H2159   1.083       .  S
C2151      C2152   1.429       .  A
C2151      S2155   1.815       .  S
C2152      C2153   1.406       .  A
C2153      C2154   1.419       .  A
C2153      H2160   1.076       .  S
C2154      S2156   1.803       .  S
S2155      H2158   1.409       .  S
S2156      H2157   1.407       .  S
C2161      C2162   1.409       .  A
C2161      C2166   1.415       .  A
C2162      C2163   1.416       .  A
C2162      H2171   1.083       .  S
C2163      C2164   1.419       .  A
C2163      S2167   1.800       .  S
C2164      C2165   1.412       .  A
C2165      C2166   1.409       .  A
C2165      H2172   1.083       .  S
C2166      S2168   1.800       .  S
S2167      H2170   1.407       .  S
S2168      H2169   1.406       .  S
C2173      C2174   1.413       .  A
C2173      C2178   1.421       .  A
C2174      C2175   1.415       .  A
C2174      H2183   1.082       .  S
C2175      C2176   1.418       .  A
C2175      S2179   1.802       .  S
C2176      C2177   1.413       .  A
C2177      C2178   1.420       .  A
C2177      H2184   1.084       .  S
C2178      S2180   1.798       .  S
S2179      H2182   1.406       .  S
S2180      H2181   1.401       .  S
C2185      C2186   1.404       .  A
C2185      C2190   1.416       .  A
C2186      C2187   1.409       .  A
C2186      H2195   1.085       .  S
C2187      C2188   1.432       .  A
C2187      S2191   1.801       .  S
C2188      C2189   1.413       .  A
C2189      C2190   1.420       .  A
C2189      H2196   1.083       .  S
C2190      S2192   1.797       .  S
S2191      H2194   1.391       .  S
S2192      H2193   1.405       .  S
C2197      C2198   1.401       .  A
C2197      C2202   1.406       .  A
C2198      C2199   1.392       .  A
C2198      H2207   1.075       .  S
C2199      C2200   1.398       .  A
C2199      S2203   1.796       .  S
C2200      C2201   1.393       .  A
C2201      C2202   1.388       .  A
C2201      H2208   1.076       .  S
C2202      S2204   1.790       .  S
S2203      H2206   1.408       .  S
S2204      H2205   1.407       .  S
C2209      C2210   1.415       .  A
C2209      C2214   1.426       .  A
C2210      C2211   1.431       .  A
C2210      H2219   1.083       .  S
C2211      C2212   1.429       .  A
C2211      S2215   1.803       .  S
C2212      C2213   1.403       .  A
C2213      C2214   1.408       .  A
C2213      H2220   1.081       .  S
C2214      S2216   1.801       .  S
S2215      H2218   1.404       .  S
S2216      H2217   1.405       .  S
C2221      C2222   1.416       .  A
C2221      C2226   1.416       .  A
C2222      C2223   1.408       .  A
C2222      H2231   1.073       .  S
C2223      C2224   1.408       .  A
C2223      S2227   1.798       .  S
C2224      C2225   1.416       .  A
C2225      C2226   1.419       .  A
C2225      H2232   1.082       .  S
C2226      S2228   1.805       .  S
S2227      H2230   1.406       .  S
S2228      H2229   1.407       .  S
C2233      C2234   1.412       .  A
C2233      C2238   1.415       .  A
C2234      C2235   1.401       .  A
C2234      H2243   1.084       .  S
C2235      C2236   1.412       .  A
C2235      S2239   1.801       .  S
C2236      C2237   1.419       .  A
C2237      C2238   1.419       .  A
C2237      H2244   1.082       .  S
C2238      S2240   1.799       .  S
S2239      H2242   1.407       .  S
S2240      H2241   1.400       .  S
C2245      C2246   1.408       .  A
C2245      C2250   1.419       .  A
C2246      C2247   1.404       .  A
C2246      H2255   1.085       .  S
C2247      C2248   1.416       .  A
C2247      S2251   1.791       .  S
C2248      C2249   1.413       .  A
C2249      C2250   1.417       .  A
C2249      H2256   1.080       .  S
C2250      S2252   1.799       .  S
S2251      H2254   1.407       .  S
S2252      H2253   1.406       .  S
C2257      C2258   1.398       .  A
C2257      C2262   1.409       .  A
C2258      C2259   1.385       .  A
C2258      H2267   1.084       .  S
C2259      C2260   1.404       .  A
C2259      S2263   1.796       .  S
C2260      C2261   1.402       .  A
C2261      C2262   1.391       .  A
C2261      H2268   1.084       .  S
C2262      S2264   1.806       .  S
S2263      H2266   1.407       .  S
S2264      H2265   1.405       .  S
C2269      C2270   1.388       .  A
C2269      C2274   1.396       .  A
C2270      C2271   1.372       .  A
C2270      H2279   1.084       .  S
C2271      C2272   1.416       .  A
C2271      S2275   1.794       .  S
C2272      C2273   1.398       .  A
C2273      C2274   1.386       .  A
C2273      H2280   1.085       .  S
C2274      S2276   1.786       .  S
S2275      H2278   1.391       .  S
S2276      H2277   1.408       .  S
C2281      C2282   1.402       .  A
C2281      C2286   1.405       .  A
C2282      C2283   1.403       .  A
C2282      H2291   1.083       .  S
C2283      C2284   1.410       .  A
C2283      S2287   1.801       .  S
C2284      C2285   1.387       .  A
C2285      C2286   1.369       .  A
C2285      H2292   1.076       .  S
C2286      S2288   1.785       .  S
S2287      H2290   1.402       .  S
S2288      H2289   1.395       .  S
C2293      C2294   1.415       .  A
C2293      C2298   1.419       .  A
C2294      C2295   1.407       .  A
C2294      H2303   1.080       .  S
C2295      C2296   1.415       .  A
C2295      S2299   1.803       .  S
C2296      C2297   1.418       .  A
C2297      C2298   1.424       .  A
C2297      H2304   1.083       .  S
C2298      S2300   1.788       .  S
S2299      H2302   1.406       .  S
S2300      H2301   1.406       .  S
C2305      C2306   1.407       .  A
C2305      C2310   1.415       .  A
C2306      C2307   1.413       .  A
C2306      H2315   1.083       .  S
C2307      C2308   1.418       .  A
C2307      S2311   1.792       .  S
C2308      C2309   1.408       .  A
C2309      C2310   1.404       .  A
C2309      H2316   1.079       .  S
C2310      S2312   1.805       .  S
S2311      H2314   1.404       .  S
S2312      H2313   1.407       .  S
C2317      C2318   1.407       .  A
C2317      C2322   1.414       .  A
C2318      C2319   1.404       .  A
C2318      H2327   1.077       .  S
C2319      C2320   1.412       .  A
C2319      S2323   1.801       .  S
C2320      C2321   1.416       .  A
C2321      C2322   1.417       .  A
C2321      H2328   1.082       .  S
C2322      S2324   1.801       .  S
S2323      H2326   1.407       .  S
S2324      H2325   1.406       .  S
C2329      C2330   1.403       .  A
C2329      C2334   1.416       .  A
C2330      C2331   1.407       .  A
C2330      H2339   1.084       .  S
C2331      C2332   1.421       .  A
C2331      S2335   1.796       .  S
C2332      C2333   1.408       .  A
C2333      C2334   1.413       .  A
C2333      H2340   1.082       .  S
C2334      S2336   1.793       .  S
S2335      H2338   1.407       .  S
S2336      H2337   1.405       .  S
C2341      C2342   1.407       .  A
C2341      C2346   1.413       .  A
C2342      C2343   1.395       .  A
C2342      H2351   1.084       .  S
C2343      C2344   1.402       .  A
C2343      S2347   1.804       .  S
C2344      C2345   1.398       .  A
C2345      C2346   1.389       .  A
C2345      H2352   1.085       .  S
C2346      S2348   1.807       .  S
S2347      H2350   1.407       .  S
S2348      H2349   1.405       .  S
C2353      C2354   1.395       .  A
C2353      C2358   1.410       .  A
C2354      C2355   1.392       .  A
C2354      H2363   1.081       .  S
C2355      C2356   1.414       .  A
C2355      S2359   1.799       .  S
C2356      C2357   1.398       .  A
C2357      C2358   1.390       .  A
C2357      H2364   1.084       .  S
C2358      S2360   1.807       .  S
S2359      H2362   1.407       .  S
S2360      H2361   1.407       .  S
C2365      C2366   1.396       .  A
C2365      C2370   1.405       .  A
C2366      C2367   1.396       .  A
C2366      H2375   1.084       .  S
C2367      C2368   1.410       .  A
C2367      S2371   1.791       .  S
C2368      C2369   1.394       .  A
C2369      C2370   1.379       .  A
C2369      H2376   1.078       .  S
C2370      S2372   1.802       .  S
S2371      H2374   1.403       .  S
S2372      H2373   1.397       .  S
C2377      C2378   1.407       .  A
C2377      C2382   1.420       .  A
C2378      C2379   1.418       .  A
C2378      H2387   1.084       .  S
C2379      C2380   1.431       .  A
C2379      S2383   1.795       .  S
C2380      C2381   1.413       .  A
C2381      C2382   1.416       .  A
C2381      H2388   1.083       .  S
C2382      S2384   1.796       .  S
S2383      H2386   1.395       .  S
S2384      H2385   1.407       .  S
C2389      C2390   1.406       .  A
C2389      C2394   1.416       .  A
C2390      C2391   1.425       .  A
C2390      H2399   1.083       .  S
C2391      C2392   1.436       .  A
C2391      S2395   1.802       .  S
C2392      C2393   1.401       .  A
C2393      C2394   1.404       .  A
C2393      H2400   1.081       .  S
C2394      S2396   1.796       .  S
S2395      H2398   1.395       .  S
S2396      H2397   1.408       .  S
C2401      C2402   1.411       .  A
C2401      C2406   1.432       .  A
C2402      C2403   1.426       .  A
C2402      H2411   1.083       .  S
C2403      C2404   1.428       .  A
C2403      S2407   1.803       .  S
C2404      C2405   1.395       .  A
C2405      C2406   1.398       .  A
C2405      H2412   1.082       .  S
C2406      S2408   1.801       .  S
S2407      H2410   1.403       .  S
S2408      H2409   1.393       .  S
C2413      C2414   1.414       .  A
C2413      C2418   1.418       .  A
C2414      C2415   1.416       .  A
C2414      H2423   1.083       .  S
C2415      C2416   1.418       .  A
C2415      S2419   1.798       .  S
C2416      C2417   1.417       .  A
C2417      C2418   1.422       .  A
C2417      H2424   1.082       .  S
C2418      S2420   1.792       .  S
S2419      H2422   1.403       .  S
S2420      H2421   1.405       .  S
C2425      C2426   1.396       .  A
C2425      C2430   1.401       .  A
C2426      C2427   1.389       .  A
C2426      H2435   1.083       .  S
C2427      C2428   1.414       .  A
C2427      S2431   1.811       .  S
C2428      C2429   1.399       .  A
C2429      C2430   1.381       .  A
C2429      H2436   1.085       .  S
C2430      S2432   1.798       .  S
S2431      H2434   1.407       .  S
S2432      H2433   1.405       .  S
C2437      C2438   1.392       .  A
C2437      C2442   1.400       .  A
C2438      C2439   1.391       .  A
C2438      H2447   1.084       .  S
C2439      C2440   1.418       .  A
C2439      S2443   1.806       .  S
C2440      C2441   1.400       .  A
C2441      C2442   1.385       .  A
C2441      H2448   1.081       .  S
C2442      S2444   1.796       .  S
S2443      H2446   1.407       .  S
S2444      H2445   1.405       .  S
C2449      C2450   1.401       .  A
C2449      C2454   1.405       .  A
C2450      C2451   1.383       .  A
C2450      H2459   1.077       .  S
C2451      C2452   1.403       .  A
C2451      S2455   1.806       .  S
C2452      C2453   1.399       .  A
C2453      C2454   1.380       .  A
C2453      H2460   1.084       .  S
C2454      S2456   1.804       .  S
S2455      H2458   1.400       .  S
S2456      H2457   1.407       .  S
C2461      C2462   1.404       .  A
C2461      C2466   1.390       .  A
C2462      C2463   1.388       .  A
C2462      H2471   1.081       .  S
C2463      C2464   1.403       .  A
C2463      S2467   1.806       .  S
C2464      C2465   1.409       .  A
C2465      C2466   1.392       .  A
C2465      H2472   1.078       .  S
C2466      S2468   1.795       .  S
S2467      H2470   1.406       .  S
S2468      H2469   1.406       .  S
