geometry optimzed in LAMMPS
_audit_creation_date              2020-11-30 
_audit_creation_method            'lammps2cif' 
_symmetry_space_group_name_H-M    'P1' 
_symmetry_Int_Tables_number       1 
_symmetry_cell_setting            triclinic 
loop_ 
_symmetry_equiv_pos_as_xyz 
  x,y,z 
_cell_length_a                    31.94990313613249 
_cell_length_b                    32.754092211426006 
_cell_length_c                    32.237835603065086 
_cell_angle_alpha                 90.25908240753282 
_cell_angle_beta                  88.73210335188324 
_cell_angle_gamma                 89.49392837867062 
loop_ 
_atom_site_label 
_atom_site_type_symbol 
_atom_site_fract_x 
_atom_site_fract_y 
_atom_site_fract_z 
_atom_site_charge 
C1          C  0.35556186  0.63375957  0.64926020    -0.01350
N2          N  0.52916129  0.42365262  0.57466786    -0.04980
N3          N  0.51739984  0.39775715  0.60357057    -0.57100
N4          N  0.44437802  0.42310552  0.51943798    -0.04660
N5          N  0.40869648  0.41318171  0.50198012    -0.59230
N6          N  0.47244343  0.39517264  0.51077105    -0.04260
N7          N  0.45770469  0.36623224  0.48756176    -0.57080
N8          N  0.51444110  0.45951953  0.58536845    -0.03940
N9          N  0.50192501  0.46027904  0.62417964    -0.59580
C10         C  0.49782266  0.42120722  0.63326255     0.97190
C11         C  0.41765546  0.37709397  0.48278824     0.96970
N12         N  0.43206676  0.54778934  0.49161220    -0.05170
N13         N  0.41499004  0.55287433  0.45585184    -0.57680
N14         N  0.48892614  0.53842934  0.57075559    -0.03290
N15         N  0.49481272  0.54895052  0.60918576    -0.58930
N16         N  0.50419675  0.56599313  0.54625961    -0.05200
N17         N  0.52104406  0.59553222  0.56699602    -0.57950
N18         N  0.42166485  0.51235868  0.50719075    -0.02930
N19         N  0.39964525  0.49161831  0.48033481    -0.59020
Mn20       Mn  0.46475735  0.48270522  0.54751768     1.18440
C21         C  0.39808550  0.51690800  0.44800593     0.99280
C22         C  0.50816057  0.58793679  0.60616960     0.99940
N23         N  0.53219055  0.40651767  0.44367490    -0.05220
N24         N  0.51626338  0.37901806  0.41905574    -0.61530
N25         N  0.60825748  0.46506838  0.48677562    -0.04020
N26         N  0.63548381  0.48374301  0.51083178    -0.62200
N27         N  0.59712591  0.43026047  0.50347735    -0.04720
N28         N  0.61794230  0.42339202  0.53647499    -0.61790
N29         N  0.54242858  0.43833888  0.42234721    -0.03620
N30         N  0.53245322  0.43397035  0.38389002    -0.62480
Mn31       Mn  0.53411479  0.41151465  0.50830877     1.10660
C32         C  0.52423672  0.39438542  0.38075339     1.00500
C33         C  0.64079635  0.45626489  0.54150391     1.00570
N34         N  0.55723253  0.57806900  0.47335044    -0.04730
N35         N  0.57341226  0.61366638  0.47989798    -0.60110
N36         N  0.51505401  0.51643558  0.40538868    -0.04050
N37         N  0.52717560  0.52364031  0.36729958    -0.56830
N38         N  0.49296887  0.54733762  0.42004018    -0.05360
N39         N  0.49605528  0.57766259  0.39437450    -0.59670
N40         N  0.58556750  0.55135582  0.46327243    -0.04350
N41         N  0.62282461  0.56781673  0.46378994    -0.56860
Mn42       Mn  0.49582121  0.56115952  0.48362005     1.20190
Mn43       Mn  0.56530960  0.49259000  0.44355666     1.10090
Cl44       Cl  0.51504831  0.48707927  0.49580130    -0.84830
C45         C  0.61488743  0.60716431  0.47480201     0.97500
C46         C  0.52379688  0.56395478  0.36574006     0.97300
C47         C  0.66634888  0.33588979  0.63210810    -0.01350
C48         C  0.36902230  0.31876227  0.32303126    -0.01350
C49         C  0.67141588  0.62911800  0.31662765    -0.01350
C50         C  0.36049458  0.62314170  0.34284453    -0.01350
C51         C  0.66622599  0.32598291  0.30566457    -0.01350
C52         C  0.35509180  0.32912801  0.63758297    -0.01350
C53         C  0.67335195  0.64454470  0.62400587    -0.01350
C54         C  0.27969407  0.21255191  0.98135799     0.01700
C55         C  0.24936133  0.24528754  0.98396102     0.01700
C56         C  0.25044143  0.97844223  0.25166259     0.01700
C57         C  0.27783908  0.97164651  0.21670112     0.01700
C58         C  0.01634785  0.21698499  0.24447306     0.01700
C59         C  0.02079705  0.24743619  0.21368781     0.01700
C60         C  0.51748834  0.23775928  0.22113192     0.01700
C61         C  0.51169403  0.21058930  0.18703306     0.01700
C62         C  0.24604769  0.22611518  0.47421493     0.01700
C63         C  0.27962490  0.25481740  0.46993015     0.01700
C64         C  0.29745201  0.48050688  0.24434088     0.01700
C65         C  0.26550883  0.47919325  0.21510071     0.01700
C66         C  0.26054138  0.71180030  0.98032492     0.01700
C67         C  0.29063096  0.74336942  0.98262171     0.01700
C68         C  0.78064775  0.25777176  0.97450795     0.01700
C69         C  0.74895511  0.22801511  0.97046286     0.01700
C70         C  0.01865321  0.25379473  0.74070790     0.01700
C71         C  0.01914330  0.21840577  0.71477650     0.01700
C72         C  0.75326107  0.47430830  0.23333847     0.01700
C73         C  0.78903811  0.47504631  0.20560977     0.01700
C74         C  0.26427827  0.48097679  0.71547766     0.01700
C75         C  0.23450129  0.48401932  0.74898658     0.01700
C76         C  0.84764857  0.63711592  0.81417205    -0.01350
N77         N  0.00610440  0.49828174  0.90320963    -0.04980
N78         N  0.99395270  0.50823201  0.86612718    -0.57100
N79         N  0.01948708  0.56902463  0.96307679    -0.04660
N80         N  0.00964724  0.60717857  0.95399439    -0.59230
N81         N  0.05527343  0.55832133  0.94545798    -0.04260
N82         N  0.07062827  0.58849263  0.92456095    -0.57080
N83         N  0.97389797  0.49454182  0.92838836    -0.03940
N84         N  0.93922148  0.49680220  0.90860754    -0.59580
C85         C  0.95200841  0.50888368  0.87116863     0.97190
C86         C  0.04219112  0.61845382  0.92991237     0.96970
N87         N  0.99395754  0.52154769  0.07810008    -0.05170
N88         N  0.01260595  0.53838725  0.10918680    -0.57680
N89         N  0.93177905  0.48019072  0.00753975    -0.03290
N90         N  0.89206736  0.48898389  0.00535744    -0.58930
N91         N  0.93873538  0.45793495  0.03997987    -0.05200
N92         N  0.90362018  0.45282822  0.06107246    -0.57950
N93         N  0.98675337  0.54794844  0.04887303    -0.02930
N94         N  0.00375391  0.58317716  0.05877690    -0.59020
Mn95       Mn  0.97662126  0.52372452  0.98680492     1.18440
C96         C  0.02037388  0.57638557  0.09657252     0.99280
C97         C  0.87667801  0.47869863  0.04293107     0.99940
N98         N  0.12818040  0.49109555  0.95524641    -0.05220
N99         N  0.16369381  0.49177429  0.93409323    -0.61530
N100        N  0.07061457  0.40615659  0.93356995    -0.04020
N101        N  0.04551525  0.37749787  0.92002698    -0.62200
N102        N  0.07171105  0.43606198  0.90682410    -0.04720
N103        N  0.04849264  0.42780483  0.87502292    -0.61790
N104        N  0.13168727  0.46430208  0.98487033    -0.03620
N105        N  0.17031214  0.45104112  0.98685765    -0.62480
Mn106      Mn  0.06733575  0.49704535  0.92758296     1.10660
C107        C  0.18555956  0.45950231  0.94920475     1.00500
C108        C  0.03198605  0.39162797  0.88314298     1.00570
N109        N  0.00599599  0.39699919  0.04764483    -0.04730
N110        N  0.96993791  0.37999375  0.04665286    -0.60110
N111        N  0.09142474  0.44268450  0.05833873    -0.04050
N112        N  0.12869819  0.45344609  0.06802010    -0.56830
N113        N  0.06401253  0.45810689  0.08457476    -0.05360
N114        N  0.08320364  0.47739739  0.11468902    -0.59670
N115        N  0.03100267  0.38175018  0.01859861    -0.04350
N116        N  0.01172196  0.35237486  0.99800485    -0.56860
Mn117      Mn  0.00062144  0.45817001  0.06522833     1.20190
Mn118      Mn  0.08209090  0.42062287  0.99855538     1.10090
Cl119      Cl  0.03116841  0.47421007  0.99447693    -0.84830
C120        C  0.97289104  0.35328997  0.01578113     0.97500
C121        C  0.12463300  0.47278069  0.10437359     0.97300
C122        C  0.87229914  0.32143329  0.12697513    -0.01350
C123        C  0.16765439  0.33295861  0.83308086    -0.01350
C124        C  0.16125345  0.64603861  0.83120752    -0.01350
C125        C  0.86833961  0.33943073  0.82255864    -0.01350
C126        C  0.85396583  0.63516257  0.11819896    -0.01350
C127        C  0.73735083  0.48399284  0.71170549     0.01700
C128        C  0.77123756  0.48776076  0.73976127     0.01700
C129        C  0.18047826  0.62793877  0.13690017    -0.01350
C130        C  0.18248287  0.33041054  0.14555584    -0.01350
C131        C  0.24894953  0.98784150  0.71998004     0.01700
C132        C  0.27266877  0.98887497  0.75724068     0.01700
C133        C  0.51726343  0.69838018  0.24480731     0.01700
C134        C  0.51504126  0.73107674  0.21574265     0.01700
C135        C  0.51565830  0.20665643  0.73549783     0.01700
C136        C  0.51211341  0.23818415  0.70592017     0.01700
C137        C  0.68194699  0.14114978  0.81420696    -0.01350
N138        N  0.50606167  0.89951859  0.90734385    -0.04980
N139        N  0.49519019  0.88723119  0.87026293    -0.57100
N140        N  0.53423643  0.95845299  0.99824017    -0.04660
N141        N  0.55457883  0.96063755  0.03394164    -0.59230
N142        N  0.50414869  0.93231133  0.00280907    -0.04260
N143        N  0.50747001  0.91483410  0.03935829    -0.57080
N144        N  0.53845897  0.92311425  0.90406702    -0.03940
N145        N  0.54885035  0.92868568  0.86558577    -0.59580
C146        C  0.52485243  0.90300502  0.84467572     0.97190
C147        C  0.53824778  0.93336637  0.05856253     0.96970
N148        N  0.59931858  0.01447448  0.00334456    -0.05170
N149        N  0.61768574  0.02657788  0.03627363    -0.57680
N150        N  0.56948295  0.00484492  0.91615158    -0.03290
N151        N  0.60260329  0.02069213  0.89868935    -0.58930
N152        N  0.54541452  0.03419634  0.93111357    -0.05200
N153        N  0.55861774  0.06949606  0.91957058    -0.57950
N154        N  0.61666444  0.98084703  0.98879373    -0.02930
N155        N  0.64671018  0.96824509  0.01346236    -0.59020
Mn156      Mn  0.57742920  0.94830849  0.94722093     1.18440
C157        C  0.64619572  0.99754836  0.04327351     0.99280
C158        C  0.59633016  0.06086180  0.90472969     0.99940
N159        N  0.42187102  0.91047184  0.00913901    -0.05220
N160        N  0.43079757  0.88376030  0.03749440    -0.61530
N161        N  0.41953849  0.98616610  0.94120571    -0.04020
N162        N  0.40778930  0.00888007  0.90977626    -0.62200
N163        N  0.44060309  0.95469479  0.92702345    -0.04720
N164        N  0.44403291  0.95601657  0.88693303    -0.61790
N165        N  0.41503833  0.94637399  0.02670188    -0.03620
N166        N  0.42049384  0.94441811  0.06673163    -0.62480
Mn167      Mn  0.46446597  0.90305885  0.95832965     1.10660
C168        C  0.43237354  0.90599202  0.07238161     1.00500
C169        C  0.41916057  0.98666074  0.87569360     1.00570
N170        N  0.48694871  0.07504559  0.98603036    -0.04730
N171        N  0.49508542  0.10646564  0.96271460    -0.60110
N172        N  0.47053999  0.01492413  0.05855485    -0.04050
N173        N  0.45839124  0.01740909  0.09745397    -0.56830
N174        N  0.51040553  0.02403489  0.05517349    -0.05360
N175        N  0.52638073  0.03159324  0.09120829    -0.59670
N176        N  0.45004802  0.06093946  0.97959013    -0.04350
N177        N  0.43218769  0.08143396  0.95000145    -0.56860
Mn178      Mn  0.53599036  0.03547929  0.99496358     1.20190
Mn179      Mn  0.43427532  0.00280415  0.00234026     1.10090
Cl180      Cl  0.50212435  0.97121235  0.97523649    -0.84830
C181        C  0.46146583  0.10911838  0.93978489     0.97500
C182        C  0.49263695  0.03169557  0.11677547     0.97300
C183        C  0.66059438  0.83004566  0.13204009    -0.01350
C184        C  0.35800946  0.84024976  0.82624925    -0.01350
C185        C  0.35900350  0.14658553  0.82160505    -0.01350
C186        C  0.67379238  0.83622109  0.80569072    -0.01350
C187        C  0.35665694  0.81456659  0.14902360    -0.01350
C188        C  0.51456084  0.75140820  0.74702325     0.01700
C189        C  0.51483773  0.71887776  0.71750478     0.01700
C190        C  0.35916402  0.12764724  0.13515491    -0.01350
C191        C  0.67760231  0.12571684  0.12060760    -0.01350
C192        C  0.01910293  0.71111394  0.19108651     0.01700
C193        C  0.01631435  0.74312972  0.22173675     0.01700
C194        C  0.75477480  0.97893071  0.20765358     0.01700
C195        C  0.78666661  0.97495439  0.23671557     0.01700
C196        C  0.77153254  0.22543199  0.46827134     0.01700
C197        C  0.73802804  0.25435526  0.46919937     0.01700
C198        C  0.27918632  0.71072969  0.49319705     0.01700
C199        C  0.25176147  0.74443654  0.48881690     0.01700
C200        C  0.85775011  0.14167087  0.31179936    -0.01350
N201        N  0.02917318  0.00485626  0.34882323    -0.04980
N202        N  0.00243913  0.02214896  0.32412342    -0.57100
N203        N  0.10158131  0.97016686  0.41336559    -0.04660
N204        N  0.13751234  0.98430124  0.40128471    -0.59230
N205        N  0.08627307  0.94696573  0.38389125    -0.04260
N206        N  0.10871010  0.95129732  0.34957338    -0.57080
N207        N  0.04865593  0.03244882  0.37015508    -0.03940
N208        N  0.03575335  0.06872554  0.36057613    -0.59580
C209        C  0.00571859  0.06201056  0.33350294     0.97190
C210        C  0.13991184  0.97534477  0.36068861     0.96970
N211        N  0.05026722  0.01452569  0.51974406    -0.05170
N212        N  0.06744022  0.02060793  0.55569184    -0.57680
N213        N  0.01778700  0.07023218  0.45207495    -0.03290
N214        N  0.01232818  0.10850563  0.46459987    -0.58930
N215        N  0.98238748  0.05194351  0.45636417    -0.05200
N216        N  0.95174863  0.07770208  0.46123669    -0.57950
N217        N  0.07912315  0.01324000  0.49088472    -0.02930
N218        N  0.11634153  0.01823812  0.50524884    -0.59020
Mn219      Mn  0.06420467  0.02274449  0.43194045     1.18440
C220        C  0.10829479  0.02356662  0.54559775     0.99280
C221        C  0.97026514  0.11160992  0.47222241     0.99940
N222        N  0.01250571  0.88753424  0.40182450    -0.05220
N223        N  0.04157039  0.86060078  0.39502391    -0.61530
N224        N  0.93198974  0.94244726  0.40067369    -0.04020
N225        N  0.89355870  0.94315604  0.38737540    -0.62200
N226        N  0.95792978  0.95231208  0.37089444    -0.04720
N227        N  0.93815745  0.96027444  0.33729074    -0.61790
N228        N  0.99779995  0.88451028  0.43987544    -0.03620
N229        N  0.01962213  0.85764129  0.46101726    -0.62480
Mn230      Mn  0.02107023  0.94622781  0.37477198     1.10660
C231        C  0.04668255  0.84319882  0.43183961     1.00500
C232        C  0.90029014  0.94533840  0.34619075     1.00570
N233        N  0.91888006  0.00195571  0.50060197    -0.04730
N234        N  0.89646503  0.99950072  0.53466771    -0.60110
N235        N  0.97595299  0.92312012  0.52516030    -0.04050
N236        N  0.99763467  0.89352233  0.54254397    -0.56830
N237        N  0.98329843  0.95739754  0.54447853    -0.05360
N238        N  0.00789701  0.95208101  0.57588572    -0.59670
N239        N  0.90502240  0.97509144  0.47498757    -0.04350
N240        N  0.86840623  0.96241410  0.48783792    -0.56860
Mn241      Mn  0.98408656  0.00945064  0.50686022     1.20190
Mn242      Mn  0.95146208  0.92811559  0.46089735     1.10090
Cl243      Cl  0.00638975  0.97519037  0.44418496    -0.84830
C244        C  0.86915339  0.96951248  0.52856307     0.97500
C245        C  0.01620724  0.91202937  0.57502404     0.97300
C246        C  0.85022436  0.80634590  0.28683713    -0.01350
C247        C  0.16710353  0.81647804  0.32767381    -0.01350
C248        C  0.16579809  0.84099257  0.63752447    -0.01350
C249        C  0.86661445  0.14967673  0.61716086    -0.01350
C250        C  0.87277797  0.82789107  0.61653978    -0.01350
C251        C  0.76263911  0.71118640  0.46562639     0.01700
C252        C  0.79284494  0.74275573  0.46391421     0.01700
C253        C  0.17325998  0.13427038  0.32076920    -0.01350
C254        C  0.18880360  0.14357950  0.63695376    -0.01350
C255        C  0.01564574  0.71449860  0.74088625     0.01700
C256        C  0.01447598  0.74515567  0.71056926     0.01700
C257        C  0.76224658  0.98653493  0.72826933     0.01700
C258        C  0.79462520  0.98614395  0.69682217     0.01700
C259        C  0.76503926  0.72116960  0.97169211     0.01700
C260        C  0.73676306  0.75562148  0.97071374     0.01700
C261        C  0.97334237  0.76292798  0.69212894    -0.04200
C262        C  0.93850672  0.74056194  0.67614039    -0.01320
C263        C  0.90262997  0.76209767  0.65927237     0.03670
C264        C  0.90674460  0.80317363  0.64435837    -0.04200
C265        C  0.94834178  0.81777124  0.64970890    -0.01310
C266        C  0.97077009  0.80501547  0.68398930     0.03670
C267        C  0.94268728  0.69750702  0.66744056     0.38320
C268        C  0.97585718  0.82034520  0.61364167     0.38310
C269        C  0.99313235  0.83545098  0.70663131     0.36730
C270        C  0.86408134  0.74065115  0.65319258     0.36730
N271        N  0.00899334  0.86117773  0.72509768    -0.38090
N272        N  0.83293569  0.72400739  0.64770157    -0.38090
N273        N  0.99943845  0.81932917  0.58591348    -0.37530
N274        N  0.94580660  0.66359648  0.65754107    -0.37540
C275        C  0.84019139  0.86106035  0.64174811    -0.04200
C276        C  0.84236177  0.87078651  0.68523437    -0.01320
C277        C  0.83059703  0.91088702  0.70249687     0.03670
C278        C  0.81191217  0.94311502  0.67861572    -0.04200
C279        C  0.80567169  0.93202210  0.63670784    -0.01310
C280        C  0.81604405  0.89195096  0.61988650     0.03670
C281        C  0.85793162  0.84001587  0.71318183     0.38320
C282        C  0.78783072  0.96235828  0.60946314     0.38310
C283        C  0.79930157  0.88385825  0.57947194     0.36730
C284        C  0.84375713  0.92001554  0.74402525     0.36730
N285        N  0.78335862  0.88027481  0.54781950    -0.38090
N286        N  0.85681562  0.92588918  0.77667480    -0.38090
N287        N  0.77364803  0.98547790  0.58656438    -0.37530
N288        N  0.86998913  0.81585544  0.73624198    -0.37540
C289        C  0.85095275  0.79655584  0.58218026    -0.04200
C290        C  0.80735210  0.79446179  0.57662277    -0.01320
C291        C  0.78877039  0.78190882  0.53806665     0.03670
C292        C  0.81222679  0.76117170  0.50551005    -0.04200
C293        C  0.85520166  0.75506990  0.51514076    -0.01310
C294        C  0.87331636  0.77002009  0.55327241     0.03670
C295        C  0.78193792  0.80250194  0.61301383     0.38320
C296        C  0.88197834  0.73361681  0.48531995     0.38310
C297        C  0.91441210  0.75469836  0.56331111     0.36730
C298        C  0.74746339  0.79776596  0.53082014     0.36730
N299        N  0.94700939  0.74088158  0.56988803    -0.38090
N300        N  0.71542578  0.81396959  0.52718774    -0.38090
N301        N  0.90423132  0.71686184  0.46197558    -0.37530
N302        N  0.76568231  0.80991564  0.64450759    -0.37540
C303        C  0.81192821  0.02867973  0.67834635    -0.04200
C304        C  0.78623133  0.05984625  0.66057676    -0.01320
C305        C  0.80183340  0.10008732  0.64855191     0.03670
C306        C  0.84584624  0.11042584  0.64588816    -0.04200
C307        C  0.86927884  0.08152155  0.67108980    -0.01310
C308        C  0.85392306  0.04131284  0.68354635     0.03670
C309        C  0.74330773  0.05007531  0.65150168     0.38320
C310        C  0.90335520  0.09522810  0.69559705     0.38310
C311        C  0.88171528  0.01346750  0.70476287     0.36730
C312        C  0.77065467  0.13131669  0.64160704     0.36730
N313        N  0.90451720  0.99190644  0.72168079    -0.38090
N314        N  0.74473318  0.15511967  0.63515320    -0.38090
N315        N  0.92755952  0.10313704  0.72040763    -0.37530
N316        N  0.70924836  0.04274893  0.64275939    -0.37540
C317        C  0.13264674  0.80851190  0.66180253    -0.04200
C318        C  0.10775024  0.77922616  0.63828566    -0.01320
C319        C  0.07005495  0.76030993  0.65387773     0.03670
C320        C  0.05584449  0.76505873  0.69490984    -0.04200
C321        C  0.07938727  0.79099433  0.71983897    -0.01310
C322        C  0.11608107  0.81201512  0.70441390     0.03670
C323        C  0.11999721  0.76288002  0.59833944     0.38320
C324        C  0.06254179  0.80084720  0.76111935     0.38310
C325        C  0.13311756  0.83711715  0.73613113     0.36730
C326        C  0.04531798  0.73460814  0.62693029     0.36730
N327        N  0.14089430  0.85410255  0.76650002    -0.38090
N328        N  0.02641426  0.71386745  0.60521123    -0.38090
N329        N  0.05026574  0.81199990  0.79328526    -0.37530
N330        N  0.12532641  0.74517168  0.56751441    -0.37540
C331        C  0.80780728  0.75922401  0.41982776    -0.04200
C332        C  0.82048243  0.73413322  0.38557198    -0.01320
C333        C  0.82212543  0.74938348  0.34342163     0.03670
C334        C  0.83108257  0.79092619  0.33384680    -0.04200
C335        C  0.82146634  0.81644846  0.37070382    -0.01310
C336        C  0.80440699  0.80059250  0.40931852     0.03670
C337        C  0.83774197  0.69437476  0.39393807     0.38320
C338        C  0.82494454  0.86000918  0.37207592     0.38310
C339        C  0.77906961  0.82698698  0.43619707     0.36730
C340        C  0.80531011  0.72398105  0.31154401     0.36730
N341        N  0.75807919  0.84941664  0.45532238    -0.38090
N342        N  0.79113461  0.70323473  0.28660756    -0.38090
N343        N  0.82442913  0.89475112  0.37813621    -0.37530
N344        N  0.85398206  0.66350238  0.40084544    -0.37540
C345        C  0.13157033  0.05420160  0.56445351    -0.04200
C346        C  0.13160612  0.09440920  0.54793262    -0.01320
C347        C  0.15307362  0.12483046  0.56850642     0.03670
C348        C  0.17647294  0.11287683  0.60292430    -0.04200
C349        C  0.18792090  0.07063421  0.60432788    -0.01310
C350        C  0.15751412  0.04348993  0.59601135     0.03670
C351        C  0.10365631  0.10776877  0.51663297     0.38320
C352        C  0.22855668  0.05587935  0.59076808     0.38310
C353        C  0.15687887  0.00429658  0.61632659     0.36730
C354        C  0.14131800  0.16718438  0.56184146     0.36730
N355        N  0.15615516  0.97399988  0.63450904    -0.38090
N356        N  0.12842297  0.20030207  0.56110841    -0.38090
N357        N  0.25917715  0.04094841  0.57799719    -0.37530
N358        N  0.08300587  0.12564228  0.49420615    -0.37540
C359        C  0.15697052  0.09237842  0.33772467    -0.04200
C360        C  0.18555918  0.06736329  0.36172840    -0.01320
C361        C  0.18984816  0.02566606  0.35400289     0.03670
C362        C  0.15796822  0.00577361  0.33387261    -0.04200
C363        C  0.12913897  0.02809754  0.31054141    -0.01310
C364        C  0.12617890  0.07071859  0.31521681     0.03670
C365        C  0.21541826  0.08280551  0.39106233     0.38320
C366        C  0.09934464  0.00686516  0.28493992     0.38310
C367        C  0.09192405  0.09099044  0.29499659     0.36730
C368        C  0.22054166  0.00149012  0.37684940     0.36730
N369        N  0.06372070  0.10489787  0.27800463    -0.38090
N370        N  0.24403071  0.98353306  0.39679101    -0.38090
N371        N  0.07476364  0.99050855  0.26507794    -0.37530
N372        N  0.23999504  0.09280935  0.41472142    -0.37540
C373        C  0.89965428  0.85952542  0.59219328    -0.04200
C374        C  0.91101298  0.89731153  0.61104870    -0.01320
C375        C  0.90055481  0.93372916  0.59098360     0.03670
C376        C  0.87883174  0.93195001  0.55268098    -0.04200
C377        C  0.87877944  0.89324583  0.53184408    -0.01310
C378        C  0.89795237  0.86019446  0.54932968     0.03670
C379        C  0.92365041  0.90018044  0.65391316     0.38320
C380        C  0.85785624  0.88536394  0.49369744     0.38310
C381        C  0.92606778  0.83544777  0.52381816     0.36730
C382        C  0.91407990  0.97126100  0.61025595     0.36730
N383        N  0.94880643  0.81596855  0.50327751    -0.38090
N384        N  0.92814754  0.99935523  0.62649548    -0.38090
N385        N  0.84081519  0.88105564  0.46294862    -0.37530
N386        N  0.93190349  0.90366492  0.68849383    -0.37540
C387        C  0.95193994  0.12490531  0.51195622    -0.04200
C388        C  0.93705029  0.09414708  0.53946354    -0.01320
C389        C  0.90245128  0.10103052  0.56482382     0.03670
C390        C  0.89366800  0.14076885  0.57745407    -0.04200
C391        C  0.91342543  0.17378141  0.55310480    -0.01310
C392        C  0.93926240  0.16477167  0.51816004     0.03670
C393        C  0.96561306  0.06423791  0.55519048     0.38320
C394        C  0.91685474  0.21549166  0.56772346     0.38310
C395        C  0.96028502  0.19621742  0.49400580     0.36730
C396        C  0.87945213  0.06685418  0.58047498     0.36730
N397        N  0.97765834  0.22090254  0.47486800    -0.38090
N398        N  0.85875654  0.04052014  0.59271132    -0.38090
N399        N  0.92339167  0.24886821  0.57741591    -0.37530
N400        N  0.98682368  0.04276550  0.57387653    -0.37540
C401        C  0.13346726  0.87503326  0.62367870    -0.04200
C402        C  0.13226637  0.89386796  0.58452140    -0.01320
C403        C  0.09267360  0.90185057  0.56725503     0.03670
C404        C  0.05606422  0.89841274  0.59210287    -0.04200
C405        C  0.06119579  0.89978419  0.63487589    -0.01310
C406        C  0.10050165  0.88933916  0.65081238     0.03670
C407        C  0.16944413  0.91257896  0.56698570     0.38320
C408        C  0.03086995  0.92261577  0.66036177     0.38310
C409        C  0.10924887  0.90808765  0.68980712     0.36730
C410        C  0.08864466  0.91747372  0.52583913     0.36730
N411        N  0.10967062  0.92660340  0.72027734    -0.38090
N412        N  0.08169963  0.92944806  0.49305371    -0.38090
N413        N  0.00898024  0.94318985  0.68063771    -0.37530
N414        N  0.19866042  0.92887151  0.55338862    -0.37540
C415        C  0.08745372  0.82662667  0.43905666    -0.04200
C416        C  0.11839750  0.85574134  0.42905244    -0.01320
C417        C  0.13341906  0.85926649  0.38803468     0.03670
C418        C  0.13369168  0.82359786  0.36323151    -0.04200
C419        C  0.11247107  0.78747199  0.38033939    -0.01310
C420        C  0.08915285  0.78990376  0.41756090     0.03670
C421        C  0.14250447  0.87550804  0.46022114     0.38320
C422        C  0.11860752  0.74659947  0.36301340     0.38310
C423        C  0.06199277  0.75678940  0.43094354     0.36730
C424        C  0.16326563  0.89093996  0.37995065     0.36730
N425        N  0.04032825  0.73057522  0.44170358    -0.38090
N426        N  0.19028306  0.91405313  0.37777430    -0.38090
N427        N  0.12344070  0.71394453  0.34977440    -0.37530
N428        N  0.16604091  0.89264357  0.48046736    -0.37540
C429        C  0.88846006  0.83263725  0.29252304    -0.04200
C430        C  0.89875841  0.86601090  0.26563032    -0.01320
C431        C  0.90567485  0.90317543  0.28384554     0.03670
C432        C  0.90094566  0.90523980  0.32699181    -0.04200
C433        C  0.91140005  0.86864201  0.34997808    -0.01310
C434        C  0.90895086  0.83167666  0.33019875     0.03670
C435        C  0.90683306  0.86353284  0.22131879     0.38320
C436        C  0.91636028  0.86485420  0.39444212     0.38310
C437        C  0.91840812  0.79426646  0.35288439     0.36730
C438        C  0.92717420  0.93497635  0.26042294     0.36730
N439        N  0.92578743  0.76620729  0.37327361    -0.38090
N440        N  0.94800931  0.95878822  0.24370414    -0.38090
N441        N  0.91918140  0.85784341  0.42931546    -0.37530
N442        N  0.91474585  0.86554787  0.18617467    -0.37540
C443        C  0.96805252  0.08536902  0.33970903    -0.04200
C444        C  0.93141198  0.06461524  0.35084329    -0.01320
C445        C  0.89347908  0.08375507  0.34760730     0.03670
C446        C  0.89434046  0.12444373  0.33496005    -0.04200
C447        C  0.93041786  0.14745374  0.34750757    -0.01310
C448        C  0.96847339  0.12688597  0.34898807     0.03670
C449        C  0.93167372  0.03642878  0.38317177     0.38320
C450        C  0.92849080  0.18787431  0.36606495     0.38310
C451        C  0.00333472  0.14450141  0.37052027     0.36730
C452        C  0.85493116  0.06303281  0.36113277     0.36730
N453        N  0.03018113  0.15701328  0.39026734    -0.38090
N454        N  0.82535649  0.04614019  0.37300900    -0.38090
N455        N  0.92879068  0.21962707  0.38195049    -0.37530
N456        N  0.92260254  0.01898799  0.41251406    -0.37540
C457        C  0.23885396  0.75980275  0.44335510    -0.04200
C458        C  0.25901877  0.75673139  0.40184614    -0.01320
C459        C  0.23530044  0.76561799  0.36299763     0.03670
C460        C  0.19926924  0.79356625  0.36413295    -0.04200
C461        C  0.19827916  0.80814591  0.40722414    -0.01310
C462        C  0.20101729  0.77967120  0.43989764     0.03670
C463        C  0.30354751  0.76156453  0.39951985     0.38320
C464        C  0.22601393  0.84218875  0.41444206     0.38310
C465        C  0.16558384  0.76067254  0.45972396     0.36730
C466        C  0.25430689  0.75363396  0.32385056     0.36730
N467        N  0.13957315  0.74277183  0.47704349    -0.38090
N468        N  0.27260951  0.74415638  0.29392694    -0.38090
N469        N  0.24895810  0.86888810  0.41913620    -0.37530
N470        N  0.33870223  0.76916004  0.39756740    -0.37540
C471        C  0.23076940  0.76712783  0.52877614    -0.04200
C472        C  0.22049627  0.75021672  0.56914543    -0.01320
C473        C  0.21013414  0.77644145  0.60482207     0.03670
C474        C  0.19063003  0.81581194  0.59929555    -0.04200
C475        C  0.18948577  0.82574348  0.55594309    -0.01310
C476        C  0.22048638  0.80920395  0.52772692     0.03670
C477        C  0.20888099  0.70796490  0.57310086     0.38320
C478        C  0.14851279  0.82413531  0.53836407     0.38310
C479        C  0.25015665  0.83647629  0.50888539     0.36730
C480        C  0.21182317  0.75942793  0.64606437     0.36730
N481        N  0.27606780  0.85807895  0.49671287    -0.38090
N482        N  0.21267143  0.74557520  0.67899254    -0.38090
N483        N  0.11493409  0.82141820  0.52592322    -0.37530
N484        N  0.19593113  0.67545426  0.57814980    -0.37540
C485        C  0.83171217  0.16403764  0.35207811    -0.04200
C486        C  0.84693499  0.16711827  0.39471912    -0.01320
C487        C  0.83289070  0.19819472  0.42247691     0.03670
C488        C  0.79035003  0.20768762  0.42537588    -0.04200
C489        C  0.76923814  0.19758915  0.38738526    -0.01310
C490        C  0.79301190  0.18577841  0.34959326     0.03670
C491        C  0.86329177  0.13327768  0.41793793     0.38320
C492        C  0.72533423  0.18825962  0.38966758     0.38310
C493        C  0.77895781  0.19624735  0.30872156     0.36730
C494        C  0.86170054  0.21784648  0.44980311     0.36730
N495        N  0.77039506  0.20396770  0.27492590    -0.38090
N496        N  0.88343096  0.23611715  0.47106213    -0.38090
N497        N  0.69066729  0.17838352  0.39202073    -0.37530
N498        N  0.87388317  0.10721708  0.43947387    -0.37540
C499        C  0.79162483  0.20850145  0.51013015    -0.04200
C500        C  0.80961974  0.23257525  0.54258197    -0.01320
C501        C  0.82565244  0.21505983  0.58101848     0.03670
C502        C  0.83013397  0.17191501  0.58743817    -0.04200
C503        C  0.80869097  0.14864676  0.55501875    -0.01310
C504        C  0.79203571  0.16622620  0.51778588     0.03670
C505        C  0.81639355  0.27525531  0.53418099     0.38320
C506        C  0.80015076  0.10557904  0.55852910     0.38310
C507        C  0.77314188  0.13981982  0.48697916     0.36730
C508        C  0.84050876  0.24188959  0.61294409     0.36730
N509        N  0.75823433  0.11863732  0.46266870    -0.38090
N510        N  0.85442931  0.26309469  0.63780209    -0.38090
N511        N  0.78872498  0.07215091  0.55797188    -0.37530
N512        N  0.82344695  0.30890412  0.52616633    -0.37540
C513        C  0.80190586  0.92942918  0.24813195    -0.04200
C514        C  0.81452162  0.89892686  0.21771805    -0.01320
C515        C  0.81567306  0.85532247  0.22656230     0.03670
C516        C  0.81592990  0.84004230  0.26762079    -0.04200
C517        C  0.79250588  0.86795201  0.29356036    -0.01310
C518        C  0.79187843  0.91181384  0.28720874     0.03670
C519        C  0.82979502  0.91110006  0.17737863     0.38320
C520        C  0.75711935  0.85103237  0.31620742     0.38310
C521        C  0.77753312  0.93815449  0.32074451     0.36730
C522        C  0.79081859  0.83042478  0.19990782     0.36730
N523        N  0.76693154  0.95802214  0.34889826    -0.38090
N524        N  0.76973650  0.80963985  0.18032672    -0.38090
N525        N  0.72872880  0.83777675  0.33431757    -0.37530
N526        N  0.84461845  0.91906172  0.14540443    -0.37540
C527        C  0.80434049  0.01598327  0.25695710    -0.04200
C528        C  0.77985552  0.04399444  0.28147656    -0.01320
C529        C  0.79372317  0.08493965  0.29328651     0.03670
C530        C  0.83618603  0.10008113  0.28679244    -0.04200
C531        C  0.86114512  0.06831178  0.26382807    -0.01310
C532        C  0.84455703  0.03046928  0.24723990     0.03670
C533        C  0.74054110  0.02956163  0.29886168     0.38320
C534        C  0.90633700  0.06853907  0.26012194     0.38310
C535        C  0.86932264  0.00613377  0.21792647     0.36730
C536        C  0.76188280  0.10846051  0.31468517     0.36730
N537        N  0.88790505  0.98804969  0.19259236    -0.38090
N538        N  0.73213469  0.12235040  0.33037228    -0.38090
N539        N  0.94208283  0.06436135  0.25528087    -0.37530
N540        N  0.70985982  0.01978057  0.31560156    -0.37540
C541        C  0.05633712  0.76313183  0.24581042    -0.04200
C542        C  0.05146212  0.79624200  0.27437309    -0.01320
C543        C  0.08633178  0.81499575  0.29523037     0.03670
C544        C  0.12961226  0.79822513  0.29539491    -0.04200
C545        C  0.13355249  0.76679603  0.26455802    -0.01310
C546        C  0.10037181  0.75936694  0.23490167     0.03670
C547        C  0.01272579  0.81908753  0.27484570     0.38320
C548        C  0.17470963  0.75295262  0.25293224     0.38310
C549        C  0.11075793  0.78175550  0.19773982     0.36730
C550        C  0.07715527  0.85610771  0.31020920     0.36730
N551        N  0.12030619  0.80262964  0.17028262    -0.38090
N552        N  0.06651600  0.88915400  0.31760021    -0.38090
N553        N  0.20716625  0.74235130  0.24068378    -0.37530
N554        N  0.98395942  0.84053182  0.27507545    -0.37540
C555        C  0.97016928  0.75602614  0.23521942    -0.04200
C556        C  0.94104830  0.77326911  0.20756675    -0.01320
C557        C  0.89677535  0.77892400  0.21848178     0.03670
C558        C  0.87895088  0.77155048  0.25975948    -0.04200
C559        C  0.90810693  0.74544894  0.28167218    -0.01310
C560        C  0.95266299  0.74422202  0.27365641     0.03670
C561        C  0.95718224  0.78565390  0.16716656     0.38320
C562        C  0.89380646  0.71025302  0.30393079     0.38310
C563        C  0.98016062  0.72612500  0.30394384     0.36730
C564        C  0.87032124  0.78671093  0.18371914     0.36730
N565        N  0.00189622  0.71227049  0.32854378    -0.38090
N566        N  0.85334774  0.79101176  0.15268764    -0.38090
N567        N  0.88635573  0.67972594  0.32019039    -0.37530
N568        N  0.97049194  0.79591541  0.13524635    -0.37540
C569        C  0.69974018  0.09909677  0.15932807    -0.04200
C570        C  0.67843377  0.07056886  0.18787010    -0.01320
C571        C  0.69753049  0.03411745  0.20403793     0.03670
C572        C  0.73835182  0.02205133  0.19312941    -0.04200
C573        C  0.76178060  0.05304828  0.17188073    -0.01310
C574        C  0.74330528  0.09199943  0.16068147     0.03670
C575        C  0.63695609  0.07584470  0.20524319     0.38320
C576        C  0.80415923  0.04536803  0.15796278     0.38310
C577        C  0.76775558  0.12806277  0.16497327     0.36730
C578        C  0.67367285  0.00896207  0.23313162     0.36730
N579        N  0.78580663  0.15794929  0.16946888    -0.38090
N580        N  0.65109384  0.99219062  0.25571179    -0.38090
N581        N  0.83741836  0.04098486  0.14364995    -0.37530
N582        N  0.60564722  0.07277806  0.22347285    -0.37540
C583        C  0.70777257  0.86754881  0.78175025    -0.04200
C584        C  0.73848399  0.89195781  0.80210771    -0.01320
C585        C  0.75172354  0.93142280  0.78703558     0.03670
C586        C  0.74394100  0.94470029  0.74590206    -0.04200
C587        C  0.72325886  0.91468096  0.72132455    -0.01310
C588        C  0.70871430  0.87618996  0.73842243     0.03670
C589        C  0.76994070  0.87081981  0.82541996     0.38320
C590        C  0.71459471  0.92333412  0.67844144     0.38310
C591        C  0.70091369  0.84304778  0.71046519     0.36730
C592        C  0.77769940  0.95606674  0.81334440     0.36730
N593        N  0.69216103  0.81674235  0.68850722    -0.38090
N594        N  0.79884227  0.97479815  0.83490683    -0.38090
N595        N  0.70600781  0.92954182  0.64435308    -0.37530
N596        N  0.79676444  0.85514016  0.84298031    -0.37540
C597        C  0.72243956  0.77556771  0.92813044    -0.04200
C598        C  0.70373750  0.75285943  0.89584024    -0.01320
C599        C  0.69854487  0.76921429  0.85440591     0.03670
C600        C  0.69642098  0.81272407  0.84596636    -0.04200
C601        C  0.70973793  0.83586198  0.88219930    -0.01310
C602        C  0.72929211  0.81719157  0.91739363     0.03670
C603        C  0.68935084  0.71201457  0.90496170     0.38320
C604        C  0.70105134  0.87933502  0.88662530     0.38310
C605        C  0.75857050  0.84141056  0.94072745     0.36730
C606        C  0.70591151  0.73943742  0.82232145     0.36730
N607        N  0.78202009  0.86100292  0.95889786    -0.38090
N608        N  0.71446838  0.71248005  0.80034131    -0.38090
N609        N  0.69400762  0.91378324  0.89146766    -0.37530
N610        N  0.67701752  0.67976904  0.91272336    -0.37540
C611        C  0.64151939  0.81075701  0.77402873    -0.04200
C612        C  0.60926376  0.82942878  0.74827756    -0.01320
C613        C  0.56801452  0.81195159  0.74370097     0.03670
C614        C  0.55773324  0.77242398  0.75848791    -0.04200
C615        C  0.59224732  0.75235598  0.77797723    -0.01310
C616        C  0.63406176  0.76842572  0.77626320     0.03670
C617        C  0.61718998  0.86537340  0.72319355     0.38320
C618        C  0.58686470  0.71549351  0.80136387     0.38310
C619        C  0.65991137  0.74737200  0.74563176     0.36730
C620        C  0.53599686  0.83604497  0.72373129     0.36730
N621        N  0.68136484  0.73223371  0.72046583    -0.38090
N622        N  0.51202749  0.85636700  0.70681471    -0.38090
N623        N  0.58475105  0.68672252  0.82196697    -0.37530
N624        N  0.62139514  0.89366885  0.70215226    -0.37540
C625        C  0.39534852  0.80987888  0.80570531    -0.04200
C626        C  0.42872792  0.79138919  0.82897544    -0.01320
C627        C  0.46342517  0.76890386  0.80968685     0.03670
C628        C  0.47169720  0.76919408  0.76635895    -0.04200
C629        C  0.43710639  0.78429088  0.74316369    -0.01310
C630        C  0.39807755  0.79763274  0.76294451     0.03670
C631        C  0.42791727  0.79222694  0.87346076     0.38320
C632        C  0.44188664  0.79117573  0.69917060     0.38310
C633        C  0.36075125  0.79849983  0.73857510     0.36730
C634        C  0.48802752  0.74148135  0.83463460     0.36730
N635        N  0.33063014  0.80251811  0.71977295    -0.38090
N636        N  0.50595754  0.71910937  0.85566140    -0.38090
N637        N  0.44415489  0.79950865  0.66436006    -0.37530
N638        N  0.43056789  0.79002283  0.90902990    -0.37540
C639        C  0.68847874  0.80435227  0.09600776    -0.04200
C640        C  0.67935515  0.76413971  0.08056446    -0.01320
C641        C  0.69049315  0.75079700  0.03882384     0.03670
C642        C  0.71818900  0.77315752  0.01302394    -0.04200
C643        C  0.72087789  0.81415550  0.02603602    -0.01310
C644        C  0.71891261  0.82319608  0.06927737     0.03670
C645        C  0.66845931  0.73246271  0.10848289     0.38320
C646        C  0.69516812  0.84144630  0.00248689     0.38310
C647        C  0.75877002  0.83394602  0.08612148     0.36730
C648        C  0.66263697  0.72324777  0.01799261     0.36730
N649        N  0.79127409  0.84306959  0.09808208    -0.38090
N650        N  0.63904161  0.70289606  0.00088527    -0.38090
N651        N  0.67451547  0.86314303  0.98325414    -0.37530
N652        N  0.66459821  0.70430198  0.12928519    -0.37540
C653        C  0.69086370  0.86502920  0.15519281    -0.04200
C654        C  0.69574403  0.87229456  0.19941783    -0.01320
C655        C  0.71128320  0.91046219  0.21594307     0.03670
C656        C  0.73228730  0.93982427  0.19089006    -0.04200
C657        C  0.73328307  0.93086904  0.14855854    -0.01310
C658        C  0.70904347  0.89877114  0.13117422     0.03670
C659        C  0.68234175  0.84421576  0.23106380     0.38320
C660        C  0.76197200  0.95381808  0.12255669     0.38310
C661        C  0.70069465  0.90542376  0.08801253     0.36730
C662        C  0.70228606  0.92000302  0.25919114     0.36730
N663        N  0.69619005  0.91291256  0.05348593    -0.38090
N664        N  0.69258305  0.92578077  0.29353797    -0.38090
N665        N  0.78732830  0.97079682  0.10341328    -0.37530
N666        N  0.67292843  0.82625250  0.26060739    -0.37540
C667        C  0.67203414  0.00108353  0.08003720    -0.04200
C668        C  0.64764746  0.01779395  0.11219826    -0.01320
C669        C  0.63744490  0.05963088  0.11047498     0.03670
C670        C  0.66671029  0.08734606  0.09263749    -0.04200
C671        C  0.69876042  0.06724497  0.06691590    -0.01310
C672        C  0.70608391  0.02441348  0.06881057     0.03670
C673        C  0.63122664  0.99279349  0.14462188     0.38320
C674        C  0.71146835  0.08199372  0.02673709     0.38310
C675        C  0.73751252  0.00477124  0.04171296     0.36730
C676        C  0.59815505  0.07299532  0.12801132     0.36730
N677        N  0.76207208  0.98981233  0.01935189    -0.38090
N678        N  0.56797820  0.08445387  0.14461425    -0.38090
N679        N  0.72835448  0.08556534  0.99492484    -0.37530
N680        N  0.61917815  0.97579607  0.17363756    -0.37540
C681        C  0.48445193  0.07053112  0.13657797    -0.04200
C682        C  0.47771916  0.10247492  0.10872161    -0.01320
C683        C  0.43690595  0.11720300  0.10369447     0.03670
C684        C  0.40413261  0.10639869  0.13342627    -0.04200
C685        C  0.42040072  0.08667726  0.17111095    -0.01310
C686        C  0.46007517  0.06846986  0.17132446     0.03670
C687        C  0.51010039  0.11259377  0.07821186     0.38320
C688        C  0.40433202  0.09177270  0.21304416     0.38310
C689        C  0.47740852  0.04767590  0.20699178     0.36730
C690        C  0.43337164  0.14538786  0.06924624     0.36730
N691        N  0.49131138  0.03125127  0.23532972    -0.38090
N692        N  0.43486893  0.16704035  0.04093895    -0.38090
N693        N  0.39598286  0.09733792  0.24779567    -0.37530
N694        N  0.53393883  0.11943850  0.05179278    -0.37540
C695        C  0.45407026  0.89222746  0.10944164    -0.04200
C696        C  0.43038824  0.90341479  0.14405789    -0.01320
C697        C  0.39167784  0.88462975  0.14428334     0.03670
C698        C  0.39117041  0.84257595  0.13258765    -0.04200
C699        C  0.42899602  0.82534434  0.11287720    -0.01310
C700        C  0.46290905  0.85077854  0.10525955     0.03670
C701        C  0.43349774  0.94369105  0.16191590     0.38320
C702        C  0.43255387  0.78441893  0.09522023     0.38310
C703        C  0.49542026  0.83675413  0.07634315     0.36730
C704        C  0.35877100  0.91169903  0.13126748     0.36730
N705        N  0.51835390  0.82319198  0.05165424    -0.38090
N706        N  0.33583897  0.93516883  0.11757640    -0.38090
N707        N  0.43706068  0.75285290  0.07936257    -0.37530
N708        N  0.43321104  0.97546308  0.17757017    -0.37540
C709        C  0.55154635  0.87647606  0.81920149    -0.04200
C710        C  0.58080540  0.90021125  0.79681605    -0.01320
C711        C  0.62329444  0.89726161  0.80726904     0.03670
C712        C  0.63855833  0.86205411  0.82748636    -0.04200
C713        C  0.60840805  0.83966717  0.85109582    -0.01310
C714        C  0.56603094  0.84212139  0.84155127     0.03670
C715        C  0.56615919  0.93467594  0.77255062     0.38320
C716        C  0.61915274  0.81767956  0.88855772     0.38310
C717        C  0.53794432  0.81750968  0.86682835     0.36730
C718        C  0.64786710  0.93380860  0.80585922     0.36730
N719        N  0.51888824  0.79987384  0.89167555    -0.38090
N720        N  0.66528239  0.96452198  0.80634011    -0.38090
N721        N  0.62486276  0.80063494  0.91932725    -0.37530
N722        N  0.55508541  0.96221810  0.75317327    -0.37540
C723        C  0.46508049  0.12521374  0.89906004    -0.04200
C724        C  0.45141437  0.16462454  0.89651999    -0.01320
C725        C  0.41751238  0.17258238  0.87132319     0.03670
C726        C  0.39879726  0.13963134  0.84764434    -0.04200
C727        C  0.42532620  0.10446021  0.84100471    -0.01310
C728        C  0.45907034  0.09800961  0.86659703     0.03670
C729        C  0.46681414  0.19454140  0.92623761     0.38320
C730        C  0.41960480  0.07418163  0.80890951     0.38310
C731        C  0.48373792  0.06078975  0.86268468     0.36730
C732        C  0.40606072  0.21524978  0.87107391     0.36730
N733        N  0.50176998  0.03048820  0.85657683    -0.38090
N734        N  0.40253858  0.25043072  0.87216470    -0.38090
N735        N  0.41542688  0.04939116  0.78379561    -0.37530
N736        N  0.47882717  0.21821345  0.94982238    -0.37540
C737        C  0.37359405  0.88310786  0.84239172    -0.04200
C738        C  0.34469235  0.91057519  0.86501799    -0.01320
C739        C  0.35382136  0.95191878  0.87058223     0.03670
C740        C  0.38778010  0.96946892  0.84844416    -0.04200
C741        C  0.40658114  0.94602930  0.81624010    -0.01310
C742        C  0.40711372  0.90315614  0.82093105     0.03670
C743        C  0.30572331  0.89823804  0.88562429     0.38320
C744        C  0.43763749  0.96458674  0.78892138     0.38310
C745        C  0.44093361  0.88105979  0.80066011     0.36730
C746        C  0.33465181  0.97220457  0.90694558     0.36730
N747        N  0.46833227  0.86458320  0.78352222    -0.38090
N748        N  0.31998867  0.98677884  0.93674548    -0.38090
N749        N  0.46291654  0.97785260  0.76668232    -0.37530
N750        N  0.27483202  0.89098048  0.90345788    -0.37540
C751        C  0.56878931  0.90897088  0.07754598    -0.04200
C752        C  0.59189327  0.88177298  0.05205497    -0.01320
C753        C  0.61609655  0.85264479  0.07060732     0.03670
C754        C  0.62973064  0.85934593  0.11160999    -0.04200
C755        C  0.60770500  0.88993133  0.13664546    -0.01310
C756        C  0.57581342  0.91315186  0.11927742     0.03670
C757        C  0.58487028  0.87820713  0.00757468     0.38320
C758        C  0.60832900  0.89036284  0.18186073     0.38310
C759        C  0.54752459  0.93823929  0.14486570     0.36730
C760        C  0.61029531  0.81229926  0.05347333     0.36730
N761        N  0.52619403  0.95811671  0.16636613    -0.38090
N762        N  0.60012473  0.78172717  0.03893033    -0.38090
N763        N  0.60525671  0.89178849  0.21770049    -0.37530
N764        N  0.57935185  0.87388060  0.97249176    -0.37540
C765        C  0.70438909  0.10634302  0.78226920    -0.04200
C766        C  0.74878447  0.09945795  0.77775266    -0.01320
C767        C  0.76716633  0.06084701  0.76356071     0.03670
C768        C  0.74310383  0.02862834  0.74587751    -0.04200
C769        C  0.69967691  0.03800836  0.74351213    -0.01310
C770        C  0.68115143  0.07571471  0.75955350     0.03670
C771        C  0.77699164  0.13244441  0.78570119     0.38320
C772        C  0.67276325  0.00868217  0.72362658     0.38310
C773        C  0.63889820  0.08339878  0.74643549     0.36730
C774        C  0.81039856  0.05283907  0.77328111     0.36730
N775        N  0.60599270  0.08727916  0.73253565    -0.38090
N776        N  0.84457096  0.04733443  0.78315902    -0.38090
N777        N  0.64996448  0.98636786  0.70807103    -0.37530
N778        N  0.80093423  0.15770083  0.79236822    -0.37540
C779        C  0.66338889  0.12025265  0.85290395    -0.04200
C780        C  0.67838711  0.08156590  0.86841968    -0.01320
C781        C  0.66780159  0.07121694  0.90891242     0.03670
C782        C  0.62899496  0.08541430  0.92114129    -0.04200
C783        C  0.62002094  0.12631572  0.91626863    -0.01310
C784        C  0.63801849  0.14505989  0.88218780     0.03670
C785        C  0.70312371  0.05121522  0.84683550     0.38320
C786        C  0.58777887  0.14660347  0.94158742     0.38310
C787        C  0.62737007  0.18819991  0.87828925     0.36730
C788        C  0.68535699  0.03559107  0.92920102     0.36730
N789        N  0.61625357  0.22193861  0.87786724    -0.38090
N790        N  0.69984332  0.00688535  0.94419549    -0.38090
N791        N  0.56202960  0.16405011  0.96039711    -0.37530
N792        N  0.72293838  0.02410827  0.83437205    -0.37540
C793        C  0.38477595  0.16933515  0.78266838    -0.04200
C794        C  0.41136657  0.14485404  0.75548069    -0.01320
C795        C  0.45525103  0.15327894  0.74689910     0.03670
C796        C  0.47302931  0.19160009  0.75621794    -0.04200
C797        C  0.44510107  0.21909823  0.77718501    -0.01310
C798        C  0.40158407  0.20967461  0.78513649     0.03670
C799        C  0.39215565  0.11425759  0.73031982     0.38320
C800        C  0.46086315  0.25825947  0.79070005     0.38310
C801        C  0.37403863  0.24428165  0.78679608     0.36730
C802        C  0.48135028  0.12315723  0.72554252     0.36730
N803        N  0.35635175  0.27508538  0.78673167    -0.38090
N804        N  0.50229869  0.09906588  0.70861667    -0.38090
N805        N  0.47309243  0.28919946  0.80267189    -0.37530
N806        N  0.37799087  0.08961849  0.70928825    -0.37540
C807        C  0.55958623  0.18960257  0.75144524    -0.04200
C808        C  0.56272557  0.17693278  0.79278681    -0.01320
C809        C  0.59666465  0.15258152  0.80542858     0.03670
C810        C  0.63936202  0.16028410  0.79133525    -0.04200
C811        C  0.63885210  0.17749523  0.75062234    -0.01310
C812        C  0.59951240  0.18570356  0.72904001     0.03670
C813        C  0.53544632  0.19349701  0.82462374     0.38320
C814        C  0.67862706  0.18011995  0.72921552     0.38310
C815        C  0.60058803  0.18378716  0.68430318     0.36730
C816        C  0.58351876  0.11214844  0.81718636     0.36730
N817        N  0.60261308  0.18069953  0.64854370    -0.38090
N818        N  0.57210853  0.07923208  0.82285172    -0.38090
N819        N  0.71186919  0.18073834  0.71450104    -0.37530
N820        N  0.51571413  0.20939424  0.85048008    -0.37540
C821        C  0.47150130  0.74861870  0.20295816    -0.04200
C822        C  0.44348631  0.72887419  0.17565322    -0.01320
C823        C  0.40199211  0.74544788  0.16704148     0.03670
C824        C  0.38908927  0.78660539  0.17821758    -0.04200
C825        C  0.41927799  0.80516946  0.20679494    -0.01310
C826        C  0.45668550  0.78519614  0.22052690     0.03670
C827        C  0.45559497  0.68895527  0.15957687     0.38320
C828        C  0.41825147  0.84734745  0.21996218     0.38310
C829        C  0.48070137  0.80328857  0.25368926     0.36730
C830        C  0.37532496  0.72029742  0.14257102     0.36730
N831        N  0.49825413  0.81884945  0.28038460    -0.38090
N832        N  0.35651506  0.69885486  0.12165107    -0.38090
N833        N  0.42252192  0.87999423  0.23286402    -0.37530
N834        N  0.46503642  0.65688967  0.14716344    -0.37540
C835        C  0.55479297  0.75350593  0.19623293    -0.04200
C836        C  0.55964812  0.75974674  0.15284929    -0.01320
C837        C  0.58182809  0.79498511  0.14013907     0.03670
C838        C  0.62403861  0.80167300  0.15563857    -0.04200
C839        C  0.62764882  0.78329481  0.19469090    -0.01310
C840        C  0.58988676  0.77137800  0.21783924     0.03670
C841        C  0.53734065  0.73691819  0.12234184     0.38320
C842        C  0.66756225  0.76381979  0.20138857     0.38310
C843        C  0.58672916  0.78201762  0.26110966     0.36730
C844        C  0.55138531  0.82660537  0.15047801     0.36730
N845        N  0.58495101  0.79311637  0.29520627    -0.38090
N846        N  0.52659676  0.84917992  0.16416898    -0.38090
N847        N  0.70050203  0.74911456  0.20385499    -0.37530
N848        N  0.52129654  0.71851887  0.09654329    -0.37540
C849        C  0.23443376  0.94586618  0.69952208    -0.04200
C850        C  0.21141918  0.91540726  0.72144864    -0.01320
C851        C  0.20356173  0.87565315  0.70407760     0.03670
C852        C  0.20047980  0.86979443  0.66111228    -0.04200
C853        C  0.22976510  0.89597327  0.63998683    -0.01310
C854        C  0.24553807  0.93337893  0.65822900     0.03670
C855        C  0.18745626  0.92662439  0.75779700     0.38320
C856        C  0.25628782  0.87774124  0.60833128     0.38310
C857        C  0.27653055  0.95592026  0.63476124     0.36730
C858        C  0.22158015  0.84114817  0.72521890     0.36730
N859        N  0.30192660  0.97068846  0.61375783    -0.38090
N860        N  0.23612800  0.81284476  0.74088587    -0.38090
N861        N  0.28147907  0.86428422  0.58589561    -0.37530
N862        N  0.16516656  0.93452900  0.78553402    -0.37540
C863        C  0.23438783  0.02840779  0.69921635    -0.04200
C864        C  0.26229002  0.05711485  0.68062434    -0.01320
C865        C  0.24994350  0.09875537  0.67219857     0.03670
C866        C  0.20729940  0.11174758  0.67167928    -0.04200
C867        C  0.17953279  0.08224509  0.69137702    -0.01310
C868        C  0.19278187  0.04241139  0.70462644     0.03670
C869        C  0.30432620  0.04466952  0.66908472     0.38320
C870        C  0.13622505  0.09128890  0.70053109     0.38310
C871        C  0.16344573  0.01875441  0.72936052     0.36730
C872        C  0.28270379  0.12824961  0.66920616     0.36730
N873        N  0.13725090  0.00465274  0.74983500    -0.38090
N874        N  0.31206869  0.14845797  0.66679442    -0.38090
N875        N  0.10192203  0.09518156  0.71185016    -0.37530
N876        N  0.33760964  0.03673647  0.65659371    -0.37540
C877        C  0.28999070  0.03099390  0.77750789    -0.04200
C878        C  0.27887541  0.07206584  0.76640131    -0.01320
C879        C  0.30577171  0.10614690  0.77505323     0.03670
C880        C  0.33609506  0.10435896  0.80647632    -0.04200
C881        C  0.33288293  0.06711479  0.83054071    -0.01310
C882        C  0.30801729  0.03259005  0.81724463     0.03670
C883        C  0.23510240  0.08256092  0.77200503     0.38320
C884        C  0.34520566  0.06839597  0.87350123     0.38310
C885        C  0.28118765  0.01562448  0.84905045     0.36730
C886        C  0.29567411  0.14628249  0.75958287     0.36730
N887        N  0.25791518  0.00716699  0.87555757    -0.38090
N888        N  0.28986222  0.17923158  0.74816755    -0.38090
N889        N  0.35223643  0.07182230  0.90838337    -0.37530
N890        N  0.20075587  0.09205997  0.77950990    -0.37540
C891        C  0.29110789  0.94607678  0.77162723    -0.04200
C892        C  0.27115349  0.91743460  0.79917563    -0.01320
C893        C  0.28579022  0.87545609  0.80365030     0.03670
C894        C  0.32728217  0.86308228  0.79183931    -0.04200
C895        C  0.34418245  0.89042575  0.75947194    -0.01310
C896        C  0.32748410  0.93063719  0.75164105     0.03670
C897        C  0.23930469  0.93138312  0.82848140     0.38320
C898        C  0.38094806  0.88083493  0.73406495     0.38310
C899        C  0.35158089  0.95833667  0.72567628     0.36730
C900        C  0.25918578  0.84601668  0.82441034     0.36730
N901        N  0.37334380  0.97907681  0.70612684    -0.38090
N902        N  0.23739230  0.82264667  0.84055678    -0.38090
N903        N  0.40947617  0.87653451  0.71167024    -0.37530
N904        N  0.21398850  0.93994033  0.85337276    -0.37540
C905        C  0.15059350  0.65975346  0.16619809    -0.04200
C906        C  0.12501256  0.65020786  0.20298973    -0.01320
C907        C  0.08258168  0.66532147  0.20912392     0.03670
C908        C  0.06343721  0.69232224  0.18094700    -0.04200
C909        C  0.09121801  0.70813467  0.15011963    -0.01310
C910        C  0.13472085  0.69584268  0.14781595     0.03670
C911        C  0.14158361  0.62977525  0.23870502     0.38320
C912        C  0.07768429  0.74210034  0.12490986     0.38310
C913        C  0.16486027  0.72664107  0.13794587     0.36730
C914        C  0.05912329  0.65408483  0.24637435     0.36730
N915        N  0.18801657  0.75299620  0.13293407    -0.38090
N916        N  0.04183247  0.64445379  0.27661573    -0.38090
N917        N  0.06806906  0.77007088  0.10530664    -0.37530
N918        N  0.15143202  0.61496789  0.26958054    -0.37540
C919        C  0.82725891  0.66860148  0.08914584    -0.04200
C920        C  0.78335953  0.66705443  0.08349072    -0.01320
C921        C  0.76350739  0.67959326  0.04544903     0.03670
C922        C  0.78393273  0.70509259  0.01476896    -0.04200
C923        C  0.82439611  0.71744592  0.02720211    -0.01310
C924        C  0.84496582  0.70094416  0.06353981     0.03670
C925        C  0.75695085  0.65862969  0.11927593     0.38320
C926        C  0.84545996  0.74826666  0.00250325     0.38310
C927        C  0.87918206  0.72505800  0.07828554     0.36730
C928        C  0.72324156  0.66168450  0.03878158     0.36730
N929        N  0.90577112  0.74637475  0.08850544    -0.38090
N930        N  0.69221215  0.64387931  0.03646098    -0.38090
N931        N  0.86261208  0.77305300  0.98334328    -0.37530
N932        N  0.73497351  0.65134105  0.14712844    -0.37540
C933        C  0.97753412  0.69133548  0.17069045    -0.04200
C934        C  0.97233939  0.68308278  0.12735026    -0.01320
C935        C  0.93550380  0.66310302  0.11106663     0.03670
C936        C  0.89674139  0.65813944  0.13523409    -0.04200
C937        C  0.90007153  0.67517393  0.17512953    -0.01310
C938        C  0.94033562  0.68126718  0.19418884     0.03670
C939        C  0.00142495  0.69842946  0.09668721     0.38320
C940        C  0.86252482  0.69403932  0.19207845     0.38310
C941        C  0.94637113  0.66182946  0.23350739     0.36730
C942        C  0.93702576  0.65320069  0.06698486     0.36730
N943        N  0.95158433  0.64390746  0.26382897    -0.38090
N944        N  0.93983483  0.64666367  0.03172012    -0.38090
N945        N  0.83099545  0.70788473  0.20392939    -0.37530
N946        N  0.01943736  0.71015456  0.06769309    -0.37540
C947        C  0.84160462  0.37615793  0.79757205    -0.04200
C948        C  0.79786385  0.37495757  0.78710087    -0.01320
C949        C  0.77396861  0.41239237  0.77815394     0.03670
C950        C  0.79361161  0.44833685  0.76054866    -0.04200
C951        C  0.83750198  0.44526369  0.76418407    -0.01310
C952        C  0.85528682  0.41788453  0.79371778     0.03670
C953        C  0.77492704  0.33746118  0.79142856     0.39680
C954        C  0.86255875  0.45180793  0.72751765     0.38310
C955        C  0.87103100  0.43752109  0.83003707     0.36730
C956        C  0.73725166  0.41794578  0.80415170     0.36730
N957        N  0.88279427  0.45169163  0.86045832    -0.38090
N958        N  0.71048005  0.42061821  0.82880119    -0.38090
N959        N  0.88411892  0.45400495  0.69832457    -0.37530
N960        N  0.75553693  0.30794751  0.79453628    -0.37540
C961        C  0.14098620  0.67430423  0.79412064    -0.04200
C962        C  0.12833542  0.66069735  0.75338917    -0.01320
C963        C  0.08995013  0.67569545  0.73439305     0.03670
C964        C  0.05960995  0.69974518  0.75757324    -0.04200
C965        C  0.07507896  0.71394781  0.79581473    -0.01310
C966        C  0.11865092  0.71031335  0.80452728     0.03670
C967        C  0.15290451  0.63114421  0.73028680     0.38320
C968        C  0.04721736  0.73122951  0.82709941     0.38310
C969        C  0.14324857  0.74563693  0.79423742     0.36730
C970        C  0.08148777  0.66384808  0.69218776     0.36730
N971        N  0.16560513  0.77241404  0.78752036    -0.38090
N972        N  0.07604403  0.65307583  0.65852006    -0.38090
N973        N  0.02498865  0.74439907  0.85275058    -0.37530
N974        N  0.17100569  0.60717637  0.71044731    -0.37540
C975        C  0.16519967  0.37289014  0.12932841    -0.04200
C976        C  0.13259491  0.39422766  0.15320894    -0.01320
C977        C  0.13698675  0.43561395  0.16388433     0.03670
C978        C  0.15622978  0.45969167  0.13410606    -0.04200
C979        C  0.19207804  0.44267440  0.11365817    -0.01310
C980        C  0.19428396  0.39955030  0.10830828     0.03670
C981        C  0.09240469  0.37757969  0.16474654     0.38320
C982        C  0.21340780  0.46759825  0.08267380     0.38310
C983        C  0.22821506  0.38390135  0.08239676     0.36730
C984        C  0.10826020  0.45454095  0.19417679     0.36730
N985        N  0.25668384  0.37422765  0.06185965    -0.38090
N986        N  0.08426626  0.46828110  0.21790421    -0.38090
N987        N  0.22877888  0.48592435  0.05587531    -0.37530
N988        N  0.05888390  0.36762976  0.17387067    -0.37540
C989        C  0.06294071  0.58884350  0.10571559    -0.04200
C990        C  0.09431729  0.58342353  0.07431524    -0.01320
C991        C  0.13662453  0.58885258  0.08268321     0.03670
C992        C  0.14726865  0.59675909  0.12354324    -0.04200
C993        C  0.11890187  0.58034493  0.15339767    -0.01310
C994        C  0.07608144  0.58443696  0.14677894     0.03670
C995        C  0.08695446  0.55887346  0.03918898     0.38320
C996        C  0.13242308  0.55646905  0.18803783     0.38310
C997        C  0.04650646  0.57719690  0.18080788     0.36730
C998        C  0.16761122  0.58135597  0.04988513     0.36730
N999        N  0.02371856  0.57078606  0.20834974    -0.38090
N1000       N  0.18904810  0.57398042  0.02140215    -0.38090
N1001       N  0.14057886  0.53696503  0.21652567    -0.37530
N1002       N  0.08767187  0.53515054  0.01318339    -0.37540
C1003       C  0.86748396  0.51709640  0.06626474    -0.04200
C1004       C  0.89388982  0.52920432  0.09923311    -0.01320
C1005       C  0.89726821  0.57011366  0.11054488     0.03670
C1006       C  0.87305523  0.60059725  0.09024033    -0.04200
C1007       C  0.85535355  0.58931919  0.05193318    -0.01310
C1008       C  0.84719493  0.54807515  0.04375234     0.03670
C1009       C  0.92159113  0.50180436  0.12082759     0.38320
C1010       C  0.85140876  0.61766888  0.01817320     0.38310
C1011       C  0.81877855  0.53700189  0.01100293     0.36730
C1012       C  0.92115476  0.57892494  0.14759334     0.36730
N1013       N  0.79550599  0.52699890  0.98602061    -0.38090
N1014       N  0.93995579  0.58406079  0.17737063    -0.38090
N1015       N  0.85045505  0.63841740  0.98930427    -0.37530
N1016       N  0.94752626  0.48456154  0.13826402    -0.37540
C1017       C  0.99014402  0.38222563  0.86728572    -0.04200
C1018       C  0.97668446  0.39520338  0.82873085    -0.01320
C1019       C  0.93865568  0.38061452  0.81373900     0.03670
C1020       C  0.90862192  0.36000109  0.84096284    -0.04200
C1021       C  0.92158548  0.35519869  0.88282522    -0.01310
C1022       C  0.95916086  0.37157182  0.89557761     0.03670
C1023       C  0.99943057  0.42645003  0.80585440     0.38320
C1024       C  0.90437368  0.32648506  0.91179730     0.38310
C1025       C  0.95884445  0.39498877  0.93297676     0.36730
C1026       C  0.93350534  0.38612918  0.76956139     0.36730
N1027       N  0.96058415  0.41722507  0.96058792    -0.38090
N1028       N  0.93285106  0.39117060  0.73408336    -0.38090
N1029       N  0.89253565  0.30275309  0.93564533    -0.37530
N1030       N  0.01645631  0.45151456  0.78695600    -0.37540
C1031       C  0.12073820  0.63959614  0.85929176    -0.04200
C1032       C  0.11740438  0.65754537  0.90011457    -0.01320
C1033       C  0.07897130  0.67513945  0.91373722     0.03670
C1034       C  0.04416346  0.65356743  0.90268324    -0.04200
C1035       C  0.04365008  0.64028931  0.86157262    -0.01310
C1036       C  0.08152476  0.62927897  0.84109870     0.03670
C1037       C  0.14384229  0.64283595  0.93268676     0.38320
C1038       C  0.00516908  0.62735612  0.84462147     0.38310
C1039       C  0.07852933  0.60575237  0.80311990     0.36730
C1040       C  0.07466312  0.69858714  0.95173246     0.36730
N1041       N  0.07428762  0.58618550  0.77359313    -0.38090
N1042       N  0.06840681  0.71696234  0.98199182    -0.38090
N1043       N  0.97668206  0.61476339  0.82790176    -0.37530
N1044       N  0.16290911  0.62987189  0.95973567    -0.37540
C1045       C  0.14721618  0.36513333  0.86485081    -0.04200
C1046       C  0.14622191  0.35705685  0.90837004    -0.01320
C1047       C  0.16485532  0.38467852  0.93627937     0.03670
C1048       C  0.18144469  0.42274968  0.92147430    -0.04200
C1049       C  0.17734484  0.43097436  0.87936153    -0.01310
C1050       C  0.15133177  0.40707601  0.85581207     0.03670
C1051       C  0.13189170  0.31846282  0.92468334     0.38320
C1052       C  0.20020823  0.46419923  0.86119024     0.38310
C1053       C  0.12324771  0.42745751  0.82848592     0.36730
C1054       C  0.16939999  0.37143202  0.97895137     0.36730
N1055       N  0.10079963  0.44421735  0.80662814    -0.38090
N1056       N  0.17209606  0.36001231  0.01266773    -0.38090
N1057       N  0.22173356  0.48978599  0.84919936    -0.37530
N1058       N  0.12124966  0.28809597  0.93946253    -0.37540
C1059       C  0.93706544  0.32704941  0.00966448    -0.04200
C1060       C  0.94314746  0.29577274  0.03780399    -0.01320
C1061       C  0.93568962  0.30698179  0.07977167     0.03670
C1062       C  0.90081401  0.33307596  0.08967993    -0.04200
C1063       C  0.88272123  0.35501422  0.05592913    -0.01310
C1064       C  0.89907546  0.34967900  0.01545286     0.03670
C1065       C  0.97297113  0.26387716  0.02652896     0.38320
C1066       C  0.84770797  0.38322678  0.06169833     0.38310
C1067       C  0.88315354  0.37693267  0.98415345     0.36730
C1068       C  0.97255522  0.31304399  0.10364272     0.36730
N1069       N  0.86876115  0.40001598  0.96129955    -0.38090
N1070       N  0.00239462  0.32287955  0.12039722    -0.38090
N1071       N  0.82056548  0.40679304  0.06436716    -0.37530
N1072       N  0.99645411  0.23843897  0.01643466    -0.37540
C1073       C  0.82100250  0.65921787  0.85353484    -0.04200
C1074       C  0.80864795  0.70113394  0.85474146    -0.01320
C1075       C  0.79761013  0.72176032  0.89356752     0.03670
C1076       C  0.78267054  0.70049554  0.92976182    -0.04200
C1077       C  0.78363019  0.65762490  0.92462531    -0.01310
C1078       C  0.80576541  0.63773586  0.89060176     0.03670
C1079       C  0.80741124  0.72364223  0.81620112     0.38320
C1080       C  0.75964007  0.63206113  0.95272683     0.38310
C1081       C  0.81042971  0.59412998  0.89618786     0.36730
C1082       C  0.80962408  0.76370595  0.89752210     0.36730
N1083       N  0.81344301  0.56032630  0.90586625    -0.38090
N1084       N  0.82317357  0.79617282  0.90021361    -0.38090
N1085       N  0.74126483  0.60781102  0.97143997    -0.37530
N1086       N  0.80623098  0.74156504  0.78537416    -0.37540
C1087       C  0.89002140  0.66122455  0.79148134    -0.04200
C1088       C  0.90633240  0.70180737  0.80140595    -0.01320
C1089       C  0.94325354  0.71987144  0.78170841     0.03670
C1090       C  0.97345316  0.69665873  0.75899301    -0.04200
C1091       C  0.96194859  0.65625135  0.75168392    -0.01310
C1092       C  0.92154841  0.63994855  0.76459402     0.03670
C1093       C  0.89382219  0.72465080  0.83758446     0.38320
C1094       C  0.99206099  0.63019791  0.72920479     0.38310
C1095       C  0.91726990  0.59924493  0.74879226     0.36730
C1096       C  0.95180345  0.76294926  0.78802365     0.36730
N1097       N  0.91967218  0.56876389  0.73075847    -0.38090
N1098       N  0.95760563  0.79736405  0.79340435    -0.38090
N1099       N  0.01341458  0.60734090  0.71104815    -0.37530
N1100       N  0.88997864  0.74643425  0.86570660    -0.37540
C1101       C  0.81385917  0.61427294  0.78349435    -0.04200
C1102       C  0.77536371  0.59547032  0.79785108    -0.01320
C1103       C  0.76107749  0.55637969  0.78214779     0.03670
C1104       C  0.78492374  0.53290560  0.75239888    -0.04200
C1105       C  0.81775260  0.55617536  0.73267103    -0.01310
C1106       C  0.82646000  0.59781369  0.74454560     0.03670
C1107       C  0.74647456  0.61791511  0.82452128     0.38320
C1108       C  0.84376392  0.53956735  0.69965303     0.38310
C1109       C  0.84382613  0.62558900  0.71417791     0.36730
C1110       C  0.72333252  0.53881820  0.79984861     0.36730
N1111       N  0.85900673  0.64715046  0.68997868    -0.38090
N1112       N  0.69322656  0.52548844  0.81480357    -0.38090
N1113       N  0.86633339  0.53045622  0.67251191    -0.37530
N1114       N  0.72188230  0.63451792  0.84551308    -0.37540
C1115       C  0.87180072  0.60198245  0.83434823    -0.04200
C1116       C  0.87310080  0.56153811  0.81707141    -0.01320
C1117       C  0.91048513  0.54052273  0.81966836     0.03670
C1118       C  0.92963955  0.54350845  0.85715634    -0.04200
C1119       C  0.91962763  0.57649690  0.88458531    -0.01310
C1120       C  0.89767540  0.60931334  0.86898987     0.03670
C1121       C  0.83914505  0.53410898  0.82612519     0.38320
C1122       C  0.92588010  0.57584528  0.92901205     0.38310
C1123       C  0.90022648  0.64758382  0.89163664     0.36730
C1124       C  0.92260153  0.50881424  0.79037991     0.36730
N1125       N  0.90350369  0.67590921  0.91285013    -0.38090
N1126       N  0.93494959  0.48477486  0.76673184    -0.38090
N1127       N  0.92711369  0.57616292  0.96483350    -0.37530
N1128       N  0.81388015  0.51059162  0.83567233    -0.37540
C1129       C  0.21643000  0.52678836  0.76844902    -0.04200
C1130       C  0.24057959  0.56255510  0.77821444    -0.01320
C1131       C  0.22063292  0.60133423  0.78960952     0.03670
C1132       C  0.18061386  0.60325101  0.81067911    -0.04200
C1133       C  0.16187264  0.56365033  0.81192437    -0.01310
C1134       C  0.17393921  0.53221960  0.78287275     0.03670
C1135       C  0.28321665  0.55759162  0.79095923     0.38320
C1136       C  0.13454785  0.55050401  0.84520816     0.38310
C1137       C  0.13924775  0.51503707  0.76157075     0.36730
C1138       C  0.24198465  0.63908112  0.78140737     0.36730
N1139       N  0.10887861  0.50562243  0.74522261    -0.38090
N1140       N  0.25643460  0.67052106  0.77406793    -0.38090
N1141       N  0.11284436  0.53682313  0.87054004    -0.37530
N1142       N  0.31646563  0.55431049  0.80414975    -0.37540
C1143       C  0.21843115  0.44307963  0.76691963    -0.04200
C1144       C  0.18159065  0.42528796  0.75256151    -0.01320
C1145       C  0.16767728  0.38596239  0.76725107     0.03670
C1146       C  0.19077942  0.36163824  0.79693167    -0.04200
C1147       C  0.23278281  0.37543439  0.79963203    -0.01310
C1148       C  0.24470054  0.41663573  0.78984072     0.03670
C1149       C  0.16340337  0.44256705  0.71532251     0.38320
C1150       C  0.26594782  0.34647767  0.80647297     0.38310
C1151       C  0.28550142  0.43093447  0.80172233     0.36730
C1152       C  0.13043062  0.37197881  0.74765387     0.36730
N1153       N  0.31772815  0.44195235  0.81269724    -0.38090
N1154       N  0.10267936  0.36490751  0.72654225    -0.38090
N1155       N  0.29426788  0.32606688  0.81428067    -0.37530
N1156       N  0.15008425  0.45468803  0.68456470    -0.37540
C1157       C  0.82585987  0.60110619  0.14869740    -0.04200
C1158       C  0.83460721  0.58815031  0.19130554    -0.01320
C1159       C  0.82419067  0.54809530  0.20855896     0.03670
C1160       C  0.80403841  0.51715685  0.18595015    -0.04200
C1161       C  0.79463878  0.52820956  0.14502671    -0.01310
C1162       C  0.79986158  0.56949660  0.12939500     0.03670
C1163       C  0.84884600  0.61546795  0.22253763     0.38320
C1164       C  0.77566508  0.49727812  0.11926248     0.38310
C1165       C  0.77541189  0.57757360  0.09314056     0.36730
C1166       C  0.83521053  0.53789003  0.25080188     0.36730
N1167       N  0.75417449  0.58061216  0.06471169    -0.38090
N1168       N  0.84484755  0.52956537  0.28411393    -0.38090
N1169       N  0.76068566  0.47297714  0.09824567    -0.37530
N1170       N  0.85776341  0.63307009  0.25216157    -0.37540
C1171       C  0.81336455  0.43406933  0.19043990    -0.04200
C1172       C  0.80608554  0.39291388  0.20382588    -0.01320
C1173       C  0.81814495  0.35883301  0.17823934     0.03670
C1174       C  0.85143866  0.36197725  0.14848182    -0.04200
C1175       C  0.87171433  0.40143294  0.14926542    -0.01310
C1176       C  0.85351931  0.43601052  0.17166423     0.03670
C1177       C  0.81645225  0.38416924  0.24631907     0.38320
C1178       C  0.91552737  0.40331402  0.13730334     0.38310
C1179       C  0.88091056  0.46357306  0.19299892     0.36730
C1180       C  0.80177182  0.31895585  0.18874076     0.36730
N1181       N  0.90239936  0.48398921  0.21259806    -0.38090
N1182       N  0.78814803  0.28726512  0.19671620    -0.38090
N1183       N  0.95114926  0.40283288  0.13003484    -0.37530
N1184       N  0.82727464  0.37554797  0.27922456    -0.37540
C1185       C  0.06297991  0.20040966  0.69657394    -0.04200
C1186       C  0.09832684  0.18806658  0.72040543    -0.01320
C1187       C  0.13984113  0.17972267  0.70094884     0.03670
C1188       C  0.14503550  0.16701702  0.65773267    -0.04200
C1189       C  0.10366190  0.16703746  0.63983554    -0.01310
C1190       C  0.07123961  0.19474561  0.65361211     0.03670
C1191       C  0.09098609  0.18006898  0.76392679     0.38320
C1192       C  0.08601387  0.12857388  0.62741510     0.38310
C1193       C  0.04537685  0.21437339  0.62332552     0.36730
C1194       C  0.17540815  0.17952856  0.72740287     0.36730
N1195       N  0.02513019  0.23083885  0.59909874    -0.38090
N1196       N  0.20307300  0.17977689  0.74981741    -0.38090
N1197       N  0.07065712  0.09772172  0.61947845    -0.37530
N1198       N  0.08367446  0.17196526  0.79819330    -0.37540
C1199       C  0.97624138  0.19811685  0.69886536    -0.04200
C1200       C  0.97974427  0.16512858  0.67254218    -0.01320
C1201       C  0.95014703  0.15802642  0.64175459     0.03670
C1202       C  0.90514401  0.17012735  0.64545485    -0.04200
C1203       C  0.89798114  0.19103698  0.68414055    -0.01310
C1204       C  0.93238605  0.20249185  0.71152437     0.03670
C1205       C  0.00400399  0.13040620  0.68631443     0.38320
C1206       C  0.85498028  0.19515967  0.69862438     0.38310
C1207       C  0.92283490  0.19635725  0.75499553     0.36730
C1208       C  0.97520722  0.14556722  0.60628306     0.36730
N1209       N  0.91408790  0.18804549  0.78892526    -0.38090
N1210       N  0.00140643  0.13949386  0.58160141    -0.38090
N1211       N  0.82018150  0.19814888  0.70896274    -0.37530
N1212       N  0.01962679  0.10088302  0.69818960    -0.37540
C1213       C  0.97542940  0.27054822  0.75814295    -0.04200
C1214       C  0.96477091  0.26391904  0.80001893    -0.01320
C1215       C  0.92567774  0.27752144  0.81788217     0.03670
C1216       C  0.89639242  0.30436747  0.79662218    -0.04200
C1217       C  0.90461150  0.30524003  0.75276320    -0.01310
C1218       C  0.94411523  0.29072502  0.73433702     0.03670
C1219       C  0.99273338  0.23843872  0.82427811     0.38320
C1220       C  0.87342519  0.32294054  0.72641032     0.38310
C1221       C  0.95282603  0.29714309  0.69065000     0.36730
C1222       C  0.91558468  0.25751640  0.85646241     0.36730
N1223       N  0.95989419  0.30218780  0.65570329    -0.38090
N1224       N  0.91174711  0.23719550  0.88552529    -0.38090
N1225       N  0.84889247  0.33770111  0.70518692    -0.37530
N1226       N  0.01435534  0.21801862  0.84387710    -0.37540
C1227       C  0.05938474  0.27341278  0.76090068    -0.04200
C1228       C  0.10154632  0.27357338  0.74536282    -0.01320
C1229       C  0.13608995  0.28663010  0.77094178     0.03670
C1230       C  0.12973784  0.30757690  0.81018339    -0.04200
C1231       C  0.08568629  0.31231721  0.82037298    -0.01310
C1232       C  0.05409963  0.30376022  0.79123821     0.03670
C1233       C  0.10645404  0.27721846  0.70084685     0.38320
C1234       C  0.06932010  0.30481524  0.86122010     0.38310
C1235       C  0.03287248  0.33797777  0.77381251     0.36730
C1236       C  0.17805302  0.28042645  0.75519307     0.36730
N1237       N  0.01846938  0.36232909  0.75250368    -0.38090
N1238       N  0.21175709  0.27477023  0.74284738    -0.38090
N1239       N  0.05140883  0.29593819  0.89141092    -0.37530
N1240       N  0.10801803  0.28226591  0.66534466    -0.37540
C1241       C  0.73412415  0.20438199  0.01151395    -0.04200
C1242       C  0.75744641  0.17152853  0.02839161    -0.01320
C1243       C  0.74459591  0.14971932  0.06598389     0.03670
C1244       C  0.70540921  0.15804211  0.08913956    -0.04200
C1245       C  0.68869316  0.19733385  0.07612977    -0.01310
C1246       C  0.69881870  0.21644662  0.03639923     0.03670
C1247       C  0.79436532  0.15780421  0.00510666     0.38320
C1248       C  0.66943440  0.22400661  0.10720830     0.38310
C1249       C  0.67569381  0.25231261  0.02371208     0.36730
C1250       C  0.77323784  0.11744146  0.07716526     0.36730
N1251       N  0.65739324  0.28108732  0.01354965    -0.38090
N1252       N  0.79782664  0.09178929  0.08141577    -0.38090
N1253       N  0.65478775  0.24578207  0.13197072    -0.37530
N1254       N  0.82344446  0.14530782  0.98702579    -0.37540
C1255       C  0.73519274  0.21200126  0.92539546    -0.04200
C1256       C  0.72146493  0.23470049  0.88974557    -0.01320
C1257       C  0.70919043  0.21441425  0.85064706     0.03670
C1258       C  0.71372002  0.17080786  0.84316363    -0.04200
C1259       C  0.73675400  0.15323426  0.87757817    -0.01310
C1260       C  0.73409897  0.17021526  0.91841452     0.03670
C1261       C  0.71298224  0.27784938  0.89515134     0.38320
C1262       C  0.76212867  0.11672649  0.87425925     0.38310
C1263       C  0.70536540  0.15237584  0.94721293     0.36730
C1264       C  0.68639016  0.23839712  0.82159547     0.36730
N1265       N  0.67996718  0.14490967  0.97200972    -0.38090
N1266       N  0.66552925  0.25890209  0.80155298    -0.38090
N1267       N  0.78403041  0.08837043  0.87322451    -0.37530
N1268       N  0.70553246  0.31231189  0.89905128    -0.37540
C1269       C  0.80001737  0.26712204  0.01879273    -0.04200
C1270       C  0.77792954  0.28191017  0.05520578    -0.01320
C1271       C  0.80025862  0.30659157  0.08348701     0.03670
C1272       C  0.84103523  0.29292044  0.09810482    -0.04200
C1273       C  0.85738637  0.26068486  0.06954529    -0.01310
C1274       C  0.84117925  0.25476979  0.02831401     0.03670
C1275       C  0.76466345  0.25127166  0.08475902     0.38320
C1276       C  0.88946852  0.23147667  0.07970801     0.38310
C1277       C  0.86602724  0.23259585  0.99739731     0.36730
C1278       C  0.77514830  0.33906233  0.10145654     0.36730
N1279       N  0.88707486  0.21467886  0.97388071    -0.38090
N1280       N  0.75306307  0.36460032  0.11404061    -0.38090
N1281       N  0.91412981  0.20580511  0.08337367    -0.37530
N1282       N  0.76034354  0.22938366  0.11259817    -0.37540
C1283       C  0.80021979  0.27899504  0.93431252    -0.04200
C1284       C  0.79958191  0.32222383  0.92917209    -0.01320
C1285       C  0.81683955  0.34205949  0.89232615     0.03670
C1286       C  0.83698387  0.31953726  0.85864347    -0.04200
C1287       C  0.82780644  0.27704210  0.86056469    -0.01310
C1288       C  0.81580800  0.25696858  0.89864049     0.03670
C1289       C  0.78037567  0.34677127  0.96202205     0.38320
C1290       C  0.82824697  0.25386400  0.82240843     0.38310
C1291       C  0.82351229  0.21348467  0.90104311     0.36730
C1292       C  0.81019179  0.38551839  0.88893755     0.36730
N1293       N  0.83135942  0.17895645  0.90185901    -0.38090
N1294       N  0.80184874  0.41995224  0.88823683    -0.38090
N1295       N  0.82857835  0.23711370  0.79081305    -0.37530
N1296       N  0.76497915  0.36638607  0.98821835    -0.37540
C1297       C  0.24101618  0.69068588  0.02020512    -0.04200
C1298       C  0.26485218  0.67254919  0.05207003    -0.01320
C1299       C  0.24590509  0.65936011  0.09094550     0.03670
C1300       C  0.20155547  0.65290084  0.09641286    -0.04200
C1301       C  0.17791709  0.67148206  0.06310620    -0.01310
C1302       C  0.19730365  0.69143658  0.02803856     0.03670
C1303       C  0.30936581  0.66680250  0.04461880     0.38320
C1304       C  0.13273024  0.67180376  0.06301457     0.38310
C1305       C  0.17189011  0.71754363  0.00240266     0.36730
C1306       C  0.27321485  0.65246365  0.12520615     0.36730
N1307       N  0.15189527  0.74026223  0.98378229    -0.38090
N1308       N  0.29526082  0.64598344  0.15235137    -0.38090
N1309       N  0.09674053  0.67230065  0.06050245    -0.37530
N1310       N  0.34478551  0.66183545  0.03792075    -0.37540
C1311       C  0.24229367  0.69828728  0.93776772    -0.04200
C1312       C  0.21882498  0.72471110  0.91265080    -0.01320
C1313       C  0.19218385  0.70931999  0.88072598     0.03670
C1314       C  0.19591192  0.66789136  0.86301443    -0.04200
C1315       C  0.22494768  0.64313500  0.88706371    -0.01310
C1316       C  0.24547983  0.65756885  0.92383093     0.03670
C1317       C  0.21619103  0.76774743  0.92417587     0.38320
C1318       C  0.22920286  0.59974616  0.88119428     0.38310
C1319       C  0.26994977  0.62937721  0.94856821     0.36730
C1320       C  0.15449801  0.73389777  0.87905716     0.36730
N1321       N  0.28936129  0.60657728  0.96777983    -0.38090
N1322       N  0.12549852  0.75529558  0.88223222    -0.38090
N1323       N  0.23475237  0.56490751  0.87995277    -0.37530
N1324       N  0.21280606  0.80189490  0.93311250    -0.37540
C1325       C  0.30570270  0.75950990  0.02663904    -0.04200
C1326       C  0.28066794  0.76251963  0.06425181    -0.01320
C1327       C  0.29973302  0.77105188  0.10422981     0.03670
C1328       C  0.33757843  0.79384942  0.10638283    -0.04200
C1329       C  0.35286348  0.80331048  0.06527829    -0.01310
C1330       C  0.34578663  0.77617351  0.03170564     0.03670
C1331       C  0.23703033  0.77222728  0.05959589     0.38320
C1332       C  0.35016258  0.84547493  0.05331399     0.38310
C1333       C  0.38012728  0.76534620  0.00420280     0.36730
C1334       C  0.27954742  0.75969865  0.14265895     0.36730
N1335       N  0.40831508  0.75480598  0.98366852    -0.38090
N1336       N  0.26586005  0.75014861  0.17459586    -0.38090
N1337       N  0.34442930  0.87891674  0.04339140    -0.37530
N1338       N  0.20309560  0.78348309  0.05451935    -0.37540
C1339       C  0.30807871  0.76548911  0.94150491    -0.04200
C1340       C  0.31701091  0.74756388  0.90119974    -0.01320
C1341       C  0.32410266  0.77262790  0.86424858     0.03670
C1342       C  0.33819751  0.81415523  0.86672523    -0.04200
C1343       C  0.34102164  0.82604871  0.91008304    -0.01310
C1344       C  0.31623463  0.80761449  0.94197599     0.03670
C1345       C  0.32675403  0.70456277  0.89777480     0.38320
C1346       C  0.37228667  0.85351073  0.92501690     0.38310
C1347       C  0.29482731  0.83375027  0.97184221     0.36730
C1348       C  0.31881280  0.75426462  0.82408058     0.36730
N1349       N  0.27538187  0.85498169  0.99375102    -0.38090
N1350       N  0.31328270  0.73948276  0.79208579    -0.38090
N1351       N  0.39790865  0.87510310  0.93647571    -0.37530
N1352       N  0.33662799  0.67065158  0.89397174    -0.37540
C1353       C  0.21471468  0.35292727  0.17959740    -0.04200
C1354       C  0.19706383  0.37927384  0.21266259    -0.01320
C1355       C  0.21189509  0.42010965  0.22120572     0.03670
C1356       C  0.24833791  0.43621244  0.20238385    -0.04200
C1357       C  0.27168491  0.40789459  0.17793538    -0.01310
C1358       C  0.25670109  0.36740516  0.16841248     0.03670
C1359       C  0.15991340  0.36847494  0.23643424     0.38320
C1360       C  0.31288013  0.41945701  0.16237759     0.38310
C1361       C  0.28923454  0.34170074  0.15059088     0.36730
C1362       C  0.18759520  0.44667863  0.24887289     0.36730
N1363       N  0.31919616  0.32589934  0.13710398    -0.38090
N1364       N  0.16692493  0.46678872  0.27082915    -0.38090
N1365       N  0.34600163  0.42562077  0.14868078    -0.37530
N1366       N  0.13027256  0.36363580  0.25702303    -0.37540
C1367       C  0.21338197  0.59518013  0.15706376    -0.04200
C1368       C  0.23491858  0.56338638  0.13351786    -0.01320
C1369       C  0.25259702  0.52767220  0.15268731     0.03670
C1370       C  0.24683535  0.51934141  0.19549072    -0.04200
C1371       C  0.23026992  0.55325979  0.21901231    -0.01310
C1372       C  0.22021319  0.59179934  0.19989791     0.03670
C1373       C  0.24893368  0.57052560  0.09128781     0.38320
C1374       C  0.21969262  0.54814721  0.26230959     0.38310
C1375       C  0.22797124  0.62944196  0.22116436     0.36730
C1376       C  0.28305341  0.50384139  0.12876025     0.36730
N1377       N  0.23383263  0.66101546  0.23583325    -0.38090
N1378       N  0.30754646  0.48854080  0.10662012    -0.38090
N1379       N  0.20879769  0.54357790  0.29638326    -0.37530
N1380       N  0.26457528  0.57455466  0.05883978    -0.37540
C1381       C  0.23587741  0.20836379  0.51968249    -0.04200
C1382       C  0.25048992  0.16931604  0.53119147    -0.01320
C1383       C  0.24782143  0.15429846  0.57322097     0.03670
C1384       C  0.22048214  0.17192673  0.60577927    -0.04200
C1385       C  0.21095098  0.21352501  0.59547659    -0.01310
C1386       C  0.21642054  0.23058539  0.55359482     0.03670
C1387       C  0.27137092  0.14394479  0.50010520     0.38320
C1388       C  0.19895917  0.24018936  0.62914974     0.38310
C1389       C  0.19570013  0.26868358  0.54429287     0.36730
C1390       C  0.28225337  0.12745446  0.58266966     0.36730
N1391       N  0.17740380  0.29833749  0.53698031    -0.38090
N1392       N  0.31233553  0.10789829  0.58638244    -0.38090
N1393       N  0.19201971  0.26203500  0.65666418    -0.37530
N1394       N  0.28895316  0.12196629  0.47751416    -0.37540
C1395       C  0.22381985  0.20587455  0.43426095    -0.04200
C1396       C  0.22709890  0.21956502  0.39206851    -0.01320
C1397       C  0.22055081  0.19226867  0.35774713     0.03670
C1398       C  0.19163854  0.15949910  0.36110161    -0.04200
C1399       C  0.17363011  0.15648327  0.40322443    -0.01310
C1400       C  0.18850431  0.18016974  0.43795443     0.03670
C1401       C  0.20344917  0.25649780  0.38463079     0.38320
C1402       C  0.13693229  0.13148408  0.41104212     0.38310
C1403       C  0.15628017  0.19516429  0.46591124     0.36730
C1404       C  0.23681941  0.20428232  0.31764811     0.36730
N1405       N  0.12753772  0.21070296  0.48178887    -0.38090
N1406       N  0.25141759  0.21428626  0.28625497    -0.38090
N1407       N  0.10821438  0.11049138  0.41503831    -0.37530
N1408       N  0.18168969  0.28380297  0.37708491    -0.37540
C1409       C  0.63369089  0.14975519  0.13690478    -0.04200
C1410       C  0.62145067  0.15669455  0.17943599    -0.01320
C1411       C  0.57829386  0.16549060  0.19136216     0.03670
C1412       C  0.55223650  0.18926548  0.16649922    -0.04200
C1413       C  0.56865508  0.19303245  0.12508370    -0.01310
C1414       C  0.60264210  0.16667280  0.10970646     0.03670
C1415       C  0.65328780  0.16030400  0.21016648     0.38320
C1416       C  0.56203802  0.23050574  0.10294609     0.38310
C1417       C  0.60848110  0.16210560  0.06563354     0.36730
C1418       C  0.55621054  0.14104470  0.22155486     0.36730
N1419       N  0.61381065  0.15862129  0.03029545    -0.38090
N1420       N  0.53673880  0.12107649  0.24421980    -0.38090
N1421       N  0.56094994  0.26132732  0.08555564    -0.37530
N1422       N  0.68011485  0.16173337  0.23358516    -0.37540
C1423       C  0.46522890  0.19629846  0.17611761    -0.04200
C1424       C  0.44445350  0.20733910  0.13890750    -0.01320
C1425       C  0.40063256  0.19807622  0.13226613     0.03670
C1426       C  0.37699850  0.16986005  0.15713058    -0.04200
C1427       C  0.39256560  0.17269164  0.19781169    -0.01310
C1428       C  0.43654216  0.17947369  0.20631970     0.03670
C1429       C  0.46558922  0.23040479  0.10682969     0.38320
C1430       C  0.36253070  0.18880127  0.22722415     0.38310
C1431       C  0.45089383  0.16879628  0.24696893     0.36730
C1432       C  0.38022041  0.21828965  0.09885350     0.36730
N1433       N  0.46107337  0.15843616  0.27950461    -0.38090
N1434       N  0.36614402  0.23426577  0.07061468    -0.38090
N1435       N  0.33736397  0.20426221  0.24837734    -0.37530
N1436       N  0.47715550  0.24953064  0.07884934    -0.37540
C1437       C  0.06431967  0.26524543  0.19752789    -0.04200
C1438       C  0.07186817  0.27155591  0.15453327    -0.01320
C1439       C  0.10543155  0.29661198  0.13943685     0.03670
C1440       C  0.14205522  0.30490901  0.16392679    -0.04200
C1441       C  0.13904444  0.28773273  0.20430669    -0.01310
C1442       C  0.09914643  0.27616165  0.22258660     0.03670
C1443       C  0.04843418  0.24864207  0.12463659     0.38320
C1444       C  0.17676189  0.28191151  0.22735796     0.38310
C1445       C  0.09393863  0.28116957  0.26685487     0.36730
C1446       C  0.10058830  0.31422129  0.09841137     0.36730
N1447       N  0.09141461  0.28792170  0.30208095    -0.38090
N1448       N  0.09611456  0.32819317  0.06588444    -0.38090
N1449       N  0.20749586  0.27762993  0.24509169    -0.37530
N1450       N  0.03145003  0.22982137  0.09980552    -0.37540
C1451       C  0.88356164  0.17209237  0.27909390    -0.04200
C1452       C  0.91074290  0.15485811  0.24770908    -0.01320
C1453       C  0.95471239  0.16439723  0.24435891     0.03670
C1454       C  0.97047133  0.20225387  0.25828836    -0.04200
C1455       C  0.93907324  0.22749522  0.27867697    -0.01310
C1456       C  0.89704339  0.21272058  0.28904404     0.03670
C1457       C  0.89153306  0.13840568  0.21109458     0.38320
C1458       C  0.95027941  0.26754718  0.29351208     0.38310
C1459       C  0.86947763  0.23932882  0.31285820     0.36730
C1460       C  0.98303396  0.13623164  0.22315190     0.36730
N1461       N  0.84961682  0.26175916  0.33299807    -0.38090
N1462       N  0.00557691  0.11357128  0.20613495    -0.38090
N1463       N  0.95748588  0.29930314  0.30736839    -0.37530
N1464       N  0.87680881  0.12515318  0.18150746    -0.37540
C1465       C  0.90199749  0.30069187  0.16259082    -0.04200
C1466       C  0.92916910  0.32288375  0.19021681    -0.01320
C1467       C  0.96808507  0.30621154  0.20423096     0.03670
C1468       C  0.98025889  0.26570172  0.19508705    -0.04200
C1469       C  0.95029347  0.24203785  0.17386874    -0.01310
C1470       C  0.91021033  0.25849634  0.16354227     0.03670
C1471       C  0.91471957  0.35762235  0.21428546     0.38320
C1472       C  0.96175864  0.20220889  0.15798926     0.38310
C1473       C  0.87433283  0.23292335  0.16739572     0.36730
C1474       C  0.99505003  0.33071322  0.23002380     0.36730
N1475       N  0.84451169  0.21377301  0.17143414    -0.38090
N1476       N  0.01584110  0.35016373  0.25127956    -0.38090
N1477       N  0.97087381  0.17118579  0.14284740    -0.37530
N1478       N  0.90753929  0.38513796  0.23596458    -0.37540
C1479       C  0.13554872  0.16417718  0.30130430    -0.04200
C1480       C  0.10199174  0.18433234  0.32504197    -0.01320
C1481       C  0.06355298  0.19911308  0.30684362     0.03670
C1482       C  0.05652843  0.19698551  0.26386531    -0.04200
C1483       C  0.09199097  0.18336456  0.23986078    -0.01310
C1484       C  0.13179395  0.17382291  0.25838156     0.03670
C1485       C  0.11016417  0.20395384  0.36391311     0.38320
C1486       C  0.08688878  0.17627591  0.19603278     0.38310
C1487       C  0.16934606  0.18178856  0.23440165     0.36730
C1488       C  0.03446152  0.22361730  0.33200786     0.36730
N1489       N  0.19911538  0.18946874  0.21515874    -0.38090
N1490       N  0.01379703  0.24366314  0.35400385    -0.38090
N1491       N  0.08166293  0.16868243  0.16146927    -0.37530
N1492       N  0.11228165  0.22361013  0.39363239    -0.37540
C1493       C  0.28980905  0.92596795  0.20394231    -0.04200
C1494       C  0.32021120  0.90210465  0.22489626    -0.01320
C1495       C  0.32817408  0.85971620  0.21445887     0.03670
C1496       C  0.32089139  0.84368302  0.17410849    -0.04200
C1497       C  0.28644781  0.86597692  0.15544780    -0.01310
C1498       C  0.26823684  0.90284211  0.17380205     0.03670
C1499       C  0.34565924  0.92072060  0.25583994     0.38320
C1500       C  0.27146586  0.85699553  0.11477733     0.38310
C1501       C  0.22755541  0.91635676  0.16034147     0.36730
C1502       C  0.33569161  0.83133982  0.24759641     0.36730
N1503       N  0.19500913  0.92504995  0.14786009    -0.38090
N1504       N  0.34231969  0.80858058  0.27399516    -0.38090
N1505       N  0.25719788  0.85442936  0.08228108    -0.37530
N1506       N  0.36808650  0.93420619  0.27990956    -0.37540
C1507       C  0.23748582  0.02455640  0.26337309    -0.04200
C1508       C  0.25676491  0.04974006  0.29407848    -0.01320
C1509       C  0.24482980  0.09237216  0.30143894     0.03670
C1510       C  0.20610369  0.11003889  0.28706582    -0.04200
C1511       C  0.19192758  0.08604484  0.25131319    -0.01310
C1512       C  0.21021810  0.04735337  0.23826080     0.03670
C1513       C  0.28843801  0.03290811  0.32046924     0.38320
C1514       C  0.15564512  0.09597604  0.22747641     0.38310
C1515       C  0.20084258  0.03182624  0.19727438     0.36730
C1516       C  0.27268506  0.11697908  0.32579263     0.36730
N1517       N  0.19220698  0.02185069  0.16409569    -0.38090
N1518       N  0.29662496  0.13525525  0.34466047    -0.38090
N1519       N  0.12761522  0.09881394  0.20554468    -0.37530
N1520       N  0.31381434  0.02276488  0.34340929    -0.37540
C1521       C  0.29720958  0.01027457  0.19249664    -0.04200
C1522       C  0.29282731  0.02000986  0.14951348    -0.01320
C1523       C  0.30964089  0.05748338  0.13104206     0.03670
C1524       C  0.32895524  0.09002348  0.15500220    -0.04200
C1525       C  0.32204669  0.08248537  0.19785761    -0.01310
C1526       C  0.31704455  0.04184988  0.21436221     0.03670
C1527       C  0.27010611  0.99291142  0.12271885     0.38320
C1528       C  0.30390888  0.11522232  0.22155623     0.38310
C1529       C  0.34374273  0.02917731  0.24725151     0.36730
C1530       C  0.29718195  0.06448096  0.08883725     0.36730
N1531       N  0.36748716  0.01912877  0.27187612    -0.38090
N1532       N  0.28388142  0.06790038  0.05589791    -0.38090
N1533       N  0.28565103  0.14121225  0.23833252    -0.37530
N1534       N  0.25299813  0.97395022  0.09800898    -0.37540
C1535       C  0.19037449  0.85792860  0.30416476    -0.04200
C1536       C  0.23238395  0.87271214  0.31237957    -0.01320
C1537       C  0.24763356  0.91332506  0.30162822     0.03670
C1538       C  0.22790265  0.93970873  0.27304289    -0.04200
C1539       C  0.18871748  0.92446147  0.26040211    -0.01310
C1540       C  0.17163528  0.88501938  0.27339110     0.03670
C1541       C  0.26414573  0.84727338  0.32984552     0.38320
C1542       C  0.16432098  0.94935051  0.23275348     0.38310
C1543       C  0.13791534  0.87234612  0.24758393     0.36730
C1544       C  0.28226626  0.92886389  0.32487134     0.36730
N1545       N  0.11069618  0.86771995  0.22500566    -0.38090
N1546       N  0.30931447  0.93826776  0.34607019    -0.38090
N1547       N  0.14235933  0.96624593  0.21039371    -0.37530
N1548       N  0.29329272  0.83187603  0.34378172    -0.37540
C1549       C  0.23130919  0.26518167  0.94278062    -0.04200
C1550       C  0.24007538  0.30600806  0.93219678    -0.01320
C1551       C  0.22814340  0.32434819  0.89338478     0.03670
C1552       C  0.19950252  0.30543257  0.86399469    -0.04200
C1553       C  0.19290986  0.26297681  0.87445802    -0.01310
C1554       C  0.20783558  0.24389248  0.91240005     0.03670
C1555       C  0.26315337  0.33058431  0.96129944     0.38320
C1556       C  0.17105350  0.23689372  0.84650571     0.38310
C1557       C  0.19554584  0.20239510  0.92154927     0.36730
C1558       C  0.24550685  0.36464041  0.88764685     0.36730
N1559       N  0.18457111  0.16950062  0.92846397    -0.38090
N1560       N  0.26317062  0.39534841  0.88627486    -0.38090
N1561       N  0.15458519  0.21383512  0.82533291    -0.37530
N1562       N  0.28218156  0.35253091  0.98158473    -0.37540
C1563       C  0.29755216  0.18746424  0.02050921    -0.04200
C1564       C  0.27443166  0.17944451  0.05795260    -0.01320
C1565       C  0.29403978  0.16255364  0.09464007     0.03670
C1566       C  0.33489043  0.14351660  0.09326396    -0.04200
C1567       C  0.34845709  0.13689568  0.05152724    -0.01310
C1568       C  0.33529843  0.16321575  0.01845918     0.03670
C1569       C  0.22985839  0.17428658  0.05430741     0.38320
C1570       C  0.36811917  0.09803888  0.04084680     0.38310
C1571       C  0.36118527  0.16313708  0.98199978     0.36730
C1572       C  0.26741280  0.15492566  0.13025694     0.36730
N1573       N  0.38184651  0.16239901  0.95242081    -0.38090
N1574       N  0.24428427  0.14671098  0.15685927    -0.38090
N1575       N  0.38193194  0.06594884  0.03377456    -0.37530
N1576       N  0.19485371  0.16648717  0.05102681    -0.37540
C1577       C  0.20217612  0.30130120  0.10637924    -0.04200
C1578       C  0.24449023  0.28891154  0.09953084    -0.01320
C1579       C  0.26018631  0.27881295  0.05821637     0.03670
C1580       C  0.23331285  0.26393894  0.02684635    -0.04200
C1581       C  0.19040024  0.26344181  0.03945905    -0.01310
C1582       C  0.17789837  0.27432205  0.08120625     0.03670
C1583       C  0.26061964  0.26323346  0.13209029     0.38320
C1584       C  0.16030482  0.24249964  0.01436628     0.38310
C1585       C  0.16058979  0.23950210  0.10298521     0.36730
C1586       C  0.30209397  0.29057318  0.04676387     0.36730
N1587       N  0.14827702  0.21107664  0.12034481    -0.38090
N1588       N  0.33461470  0.30268993  0.03647829    -0.38090
N1589       N  0.13551362  0.22449604  0.99633472    -0.37530
N1590       N  0.27335562  0.24334311  0.15865214    -0.37540
C1591       C  0.29431007  0.19799267  0.93680435    -0.04200
C1592       C  0.28787003  0.15735444  0.92400670    -0.01320
C1593       C  0.29794880  0.14428601  0.88262100     0.03670
C1594       C  0.32404533  0.16766602  0.85446294    -0.04200
C1595       C  0.31846874  0.20974335  0.86314026    -0.01310
C1596       C  0.31130042  0.22393668  0.90518395     0.03670
C1597       C  0.26774251  0.12889503  0.95240945     0.38320
C1598       C  0.29309377  0.23004666  0.83324352     0.38310
C1599       C  0.32528388  0.26431800  0.91556247     0.36730
C1600       C  0.26557893  0.11867083  0.86657650     0.36730
N1601       N  0.33885820  0.29607798  0.92305835    -0.38090
N1602       N  0.23697398  0.09902924  0.85867258    -0.38090
N1603       N  0.27059134  0.24424558  0.80959361    -0.37530
N1604       N  0.25162923  0.10594349  0.97462877    -0.37540
C1605       C  0.63985181  0.67471068  0.65378031    -0.04200
C1606       C  0.62452602  0.66156358  0.69431042    -0.01320
C1607       C  0.58233463  0.67041901  0.71011588     0.03670
C1608       C  0.55872469  0.70482086  0.69687329    -0.04200
C1609       C  0.58087952  0.72847033  0.66698313    -0.01310
C1610       C  0.61608928  0.71204122  0.64251391     0.03670
C1611       C  0.65309639  0.64348125  0.72346058     0.38320
C1612       C  0.56531025  0.76896193  0.65707270     0.38310
C1613       C  0.61829995  0.73207768  0.60258074     0.36730
C1614       C  0.56456869  0.64464374  0.74204562     0.36730
N1615       N  0.61595054  0.75115122  0.57257493    -0.38090
N1616       N  0.55099297  0.62378266  0.76779703    -0.38090
N1617       N  0.55475973  0.80067811  0.64534676    -0.37530
N1618       N  0.67561754  0.62959766  0.74736041    -0.37540
C1619       C  0.71734414  0.52484942  0.69122305    -0.04200
C1620       C  0.74403248  0.55348755  0.67119861    -0.01320
C1621       C  0.73074284  0.59456181  0.66055859     0.03670
C1622       C  0.68869176  0.60439882  0.65161196    -0.04200
C1623       C  0.66034530  0.57335805  0.66655210    -0.01310
C1624       C  0.67385396  0.53691536  0.68869781     0.03670
C1625       C  0.77580230  0.53408490  0.64562409     0.38320
C1626       C  0.61597343  0.57978699  0.66118723     0.38310
C1627       C  0.64059867  0.51372808  0.70761094     0.36730
C1628       C  0.75868117  0.62831687  0.66353175     0.36730
N1629       N  0.60995614  0.49944985  0.72047335    -0.38090
N1630       N  0.77715259  0.65839192  0.66505316    -0.38090
N1631       N  0.58045219  0.58558869  0.65840559    -0.37530
N1632       N  0.79847616  0.51584022  0.62386454    -0.37540
C1633       C  0.71025544  0.66714461  0.59295017    -0.04200
C1634       C  0.70030270  0.70441136  0.57284772    -0.01320
C1635       C  0.70873034  0.71162328  0.52917502     0.03670
C1636       C  0.74541317  0.69599187  0.50926915    -0.04200
C1637       C  0.76712565  0.66819255  0.53436791    -0.01310
C1638       C  0.74668568  0.64901661  0.57006934     0.03670
C1639       C  0.70200693  0.73954983  0.59905107     0.38320
C1640       C  0.80996376  0.65750316  0.52259968     0.38310
C1641       C  0.76328589  0.60882048  0.57553783     0.36730
C1642       C  0.68063842  0.73702736  0.50608641     0.36730
N1643       N  0.78057148  0.57788978  0.57214153    -0.38090
N1644       N  0.65774525  0.75730340  0.48775946    -0.38090
N1645       N  0.84431991  0.64888788  0.51416103    -0.37530
N1646       N  0.69928017  0.76783118  0.62028971    -0.37540
C1647       C  0.39255656  0.30010941  0.66082256    -0.04200
C1648       C  0.43676462  0.31214992  0.66322601    -0.01320
C1649       C  0.46169275  0.29747831  0.69453321     0.03670
C1650       C  0.46718540  0.25542578  0.69453917    -0.04200
C1651       C  0.42880485  0.23459641  0.68210500    -0.01310
C1652       C  0.39015927  0.25824713  0.67309383     0.03670
C1653       C  0.46260111  0.31610605  0.62611372     0.38320
C1654       C  0.43088768  0.19283130  0.66808106     0.38310
C1655       C  0.35002232  0.23955414  0.66867227     0.36730
C1656       C  0.48972765  0.32486219  0.71512151     0.36730
N1657       N  0.31609927  0.22892222  0.66376602    -0.38090
N1658       N  0.51166148  0.34643081  0.73278146    -0.38090
N1659       N  0.43212513  0.16019221  0.65418486    -0.37530
N1660       N  0.48570053  0.31774316  0.59800147    -0.37540
C1661       C  0.31831075  0.36219769  0.65370731    -0.04200
C1662       C  0.30962690  0.40035569  0.63117185    -0.01320
C1663       C  0.29946007  0.43740934  0.65317783     0.03670
C1664       C  0.27873426  0.43770004  0.69265247    -0.04200
C1665       C  0.26945580  0.39546526  0.70433889    -0.01310
C1666       C  0.29733979  0.36201156  0.69259401     0.03670
C1667       C  0.31660246  0.40395936  0.58660387     0.38320
C1668       C  0.22870375  0.38094334  0.69381835     0.38310
C1669       C  0.29522687  0.32329903  0.71328235     0.36730
C1670       C  0.31428640  0.47456451  0.63545119     0.36730
N1671       N  0.29452895  0.29145492  0.72844401    -0.38090
N1672       N  0.32875435  0.50430981  0.62313871    -0.38090
N1673       N  0.19745369  0.36672599  0.68377697    -0.37530
N1674       N  0.32169486  0.40807664  0.55120594    -0.37540
C1675       C  0.33666077  0.30630490  0.59338689    -0.04200
C1676       C  0.29790685  0.31795199  0.57429519    -0.01320
C1677       C  0.28769070  0.30931487  0.53182047     0.03670
C1678       C  0.30136159  0.27303098  0.51095994    -0.04200
C1679       C  0.33322362  0.25251728  0.53391790    -0.01310
C1680       C  0.35300160  0.27036843  0.57079477     0.03670
C1681       C  0.26130179  0.32783118  0.59901816     0.38320
C1682       C  0.34742901  0.21277222  0.51950137     0.38310
C1683       C  0.39186472  0.25120591  0.58194890     0.36730
C1684       C  0.25991887  0.33845554  0.51319654     0.36730
N1685       N  0.42354797  0.23489618  0.58692498    -0.38090
N1686       N  0.23825839  0.36519809  0.50389357    -0.38090
N1687       N  0.36038623  0.18094343  0.50992312    -0.37530
N1688       N  0.22922075  0.33469963  0.61460274    -0.37540
C1689       C  0.70101954  0.35579250  0.28295991    -0.04200
C1690       C  0.70191907  0.36461539  0.23935957    -0.01320
C1691       C  0.71589483  0.40370210  0.22357598     0.03670
C1692       C  0.73733936  0.43210313  0.24873425    -0.04200
C1693       C  0.74670891  0.41870677  0.28877706    -0.01310
C1694       C  0.72698889  0.38359994  0.30649270     0.03670
C1695       C  0.68700554  0.33497117  0.21020809     0.38320
C1696       C  0.77517761  0.44341792  0.31321833     0.38310
C1697       C  0.73423495  0.37942122  0.35011228     0.36730
C1698       C  0.70578793  0.41592075  0.18188615     0.36730
N1699       N  0.74421071  0.37918194  0.38430040    -0.38090
N1700       N  0.69631924  0.42643223  0.14916907    -0.38090
N1701       N  0.79756877  0.46279419  0.33283673    -0.37530
N1702       N  0.67584237  0.31153388  0.18604149    -0.37540
C1703       C  0.68645354  0.29778281  0.34410207    -0.04200
C1704       C  0.66143163  0.27764080  0.37587747    -0.01320
C1705       C  0.67736159  0.26621738  0.41602522     0.03670
C1706       C  0.72008019  0.27088407  0.42646083    -0.04200
C1707       C  0.74590202  0.28638919  0.39340164    -0.01310
C1708       C  0.73019382  0.29388302  0.35215669     0.03670
C1709       C  0.61901983  0.26602736  0.36709980     0.38320
C1710       C  0.78865515  0.29698080  0.40235674     0.38310
C1711       C  0.75948874  0.29617382  0.31757317     0.36730
C1712       C  0.64990458  0.24590631  0.44554456     0.36730
N1713       N  0.78210472  0.29781151  0.28915987    -0.38090
N1714       N  0.62784409  0.22879684  0.46830711    -0.38090
N1715       N  0.82245311  0.30620228  0.41025422    -0.37530
N1716       N  0.58487163  0.25656402  0.36132598    -0.37540
C1717       C  0.63287825  0.29940924  0.27553804    -0.04200
C1718       C  0.63020514  0.25562763  0.27515733    -0.01320
C1719       C  0.59252537  0.23446169  0.26227769     0.03670
C1720       C  0.56329083  0.25275950  0.23364942    -0.04200
C1721       C  0.57767078  0.29166896  0.22088489    -0.01310
C1722       C  0.59818319  0.31586243  0.25144785     0.03670
C1723       C  0.66353062  0.23139419  0.29171167     0.38320
C1724       C  0.55751014  0.31210138  0.18677678     0.38310
C1725       C  0.56122066  0.33103328  0.27302321     0.36730
C1726       C  0.58527178  0.19607574  0.28273081     0.36730
N1727       N  0.52795656  0.33969974  0.28513052    -0.38090
N1728       N  0.58337663  0.16636823  0.30201597    -0.38090
N1729       N  0.54127178  0.32869770  0.15982796    -0.37530
N1730       N  0.68839880  0.21055603  0.30631231    -0.37540
C1731       C  0.40121966  0.64677644  0.31741529    -0.04200
C1732       C  0.41407331  0.64095164  0.27362199    -0.01320
C1733       C  0.43684309  0.67208020  0.25269405     0.03670
C1734       C  0.47603667  0.68297052  0.26984688    -0.04200
C1735       C  0.46973842  0.68965829  0.31319227    -0.01310
C1736       C  0.43054479  0.67720516  0.33474601     0.03670
C1737       C  0.41248156  0.60368124  0.24971754     0.38320
C1738       C  0.49526413  0.72134308  0.33105132     0.38310
C1739       C  0.41798974  0.70702957  0.36544265     0.36730
C1740       C  0.40715549  0.70588043  0.25228990     0.36730
N1741       N  0.41365283  0.73316555  0.38939943    -0.38090
N1742       N  0.38243509  0.73172004  0.25601325    -0.38090
N1743       N  0.51274841  0.74828498  0.34592294    -0.37530
N1744       N  0.41458715  0.57408845  0.22999315    -0.37540
C1745       C  0.29866368  0.68955402  0.45387372    -0.04200
C1746       C  0.27506628  0.67371741  0.42034425    -0.01320
C1747       C  0.29499086  0.66213441  0.38127291     0.03670
C1748       C  0.33907694  0.65324162  0.37796654    -0.04200
C1749       C  0.36122610  0.66381606  0.41545982    -0.01310
C1750       C  0.34239811  0.68692775  0.44844342     0.03670
C1751       C  0.23008652  0.66957759  0.42550969     0.38320
C1752       C  0.40217419  0.64690658  0.42461460     0.38310
C1753       C  0.36912783  0.71071843  0.47464945     0.36730
C1754       C  0.26851205  0.65820618  0.34601169     0.36730
N1755       N  0.39168814  0.73109672  0.49287140    -0.38090
N1756       N  0.24522733  0.65489357  0.31934988    -0.38090
N1757       N  0.43451706  0.63412598  0.43361300    -0.37530
N1758       N  0.19419535  0.66606674  0.42925334    -0.37540
C1759       C  0.32764893  0.59803716  0.31257915    -0.04200
C1760       C  0.32695657  0.59804934  0.26837420    -0.01320
C1761       C  0.32046277  0.56066589  0.24436857     0.03670
C1762       C  0.31089465  0.52240267  0.26442983    -0.04200
C1763       C  0.30813771  0.52546192  0.30742495    -0.01310
C1764       C  0.30456045  0.56359192  0.32745366     0.03670
C1765       C  0.32636303  0.63713402  0.24792307     0.38320
C1766       C  0.32688128  0.49298458  0.32965102     0.38310
C1767       C  0.26997307  0.56814951  0.35684172     0.36730
C1768       C  0.33041534  0.56141725  0.20049870     0.36730
N1769       N  0.24184082  0.57102387  0.37997419    -0.38090
N1770       N  0.34072272  0.56339521  0.16594009    -0.38090
N1771       N  0.34483493  0.46629431  0.34456892    -0.37530
N1772       N  0.32509312  0.66855583  0.23179202    -0.37540
C1773       C  0.74490280  0.69230034  0.42387349    -0.04200
C1774       C  0.71907761  0.71465785  0.39650761    -0.01320
C1775       C  0.69019178  0.69188441  0.37270742     0.03670
C1776       C  0.70318301  0.65634889  0.34763551    -0.04200
C1777       C  0.73954370  0.63839304  0.36721597    -0.01310
C1778       C  0.75414533  0.65202009  0.40787086     0.03670
C1779       C  0.70898692  0.75716326  0.40431690     0.38320
C1780       C  0.76272300  0.60552655  0.34723064     0.38310
C1781       C  0.77961077  0.62439043  0.43156158     0.36730
C1782       C  0.65653905  0.68750812  0.40287034     0.36730
N1783       N  0.80031053  0.60113400  0.44883243    -0.38090
N1784       N  0.63041706  0.68597362  0.42810524    -0.38090
N1785       N  0.78237587  0.57922306  0.33243458    -0.37530
N1786       N  0.69879195  0.79075248  0.40981733    -0.37540
C1787       C  0.64202551  0.64458396  0.27930693    -0.04200
C1788       C  0.63753772  0.68454420  0.26464017    -0.01320
C1789       C  0.60090920  0.69375446  0.24118828     0.03670
C1790       C  0.56138210  0.67783586  0.25491201    -0.04200
C1791       C  0.56650726  0.63503600  0.26191157    -0.01310
C1792       C  0.60873984  0.61866833  0.26449567     0.03670
C1793       C  0.66422844  0.71614199  0.27994732     0.38320
C1794       C  0.53440215  0.60846016  0.24664265     0.38310
C1795       C  0.62011697  0.59207519  0.22982304     0.36730
C1796       C  0.60531601  0.68168825  0.19787984     0.36730
N1797       N  0.62693143  0.57087881  0.20164929    -0.38090
N1798       N  0.60277831  0.66748021  0.16512769    -0.38090
N1799       N  0.51062773  0.58698403  0.23136489    -0.37530
N1800       N  0.68562996  0.74111187  0.29325821    -0.37540
C1801       C  0.69219539  0.58821198  0.29448222    -0.04200
C1802       C  0.67609663  0.54759123  0.29813745    -0.01320
C1803       C  0.70117389  0.51325221  0.28778179     0.03670
C1804       C  0.73056257  0.51410159  0.25323706    -0.04200
C1805       C  0.73204966  0.55433073  0.23570544    -0.01310
C1806       C  0.72147907  0.59027034  0.26034634     0.03670
C1807       C  0.63175834  0.53860573  0.29570625     0.38320
C1808       C  0.72059343  0.55736189  0.19285445     0.38310
C1809       C  0.73299913  0.62982366  0.24476974     0.36730
C1810       C  0.68903449  0.47828479  0.31164898     0.36730
N1811       N  0.74129978  0.66180405  0.23226164    -0.38090
N1812       N  0.67649417  0.45331182  0.33366566    -0.38090
N1813       N  0.70829143  0.55995467  0.15946729    -0.37530
N1814       N  0.59734354  0.52879565  0.29140195    -0.37540
C1815       C  0.35080237  0.36139195  0.29964179    -0.04200
C1816       C  0.36994703  0.38323498  0.26454050    -0.01320
C1817       C  0.35468210  0.42274897  0.25055307     0.03670
C1818       C  0.31470228  0.43849329  0.26215814    -0.04200
C1819       C  0.29472756  0.41682220  0.29515806    -0.01310
C1820       C  0.31729540  0.38605518  0.31786622     0.03670
C1821       C  0.40938502  0.37101878  0.24542165     0.38320
C1822       C  0.25696825  0.43386379  0.31434536     0.38310
C1823       C  0.31227380  0.38889949  0.36277754     0.36730
C1824       C  0.38219270  0.44956287  0.22701545     0.36730
N1825       N  0.30852502  0.39367551  0.39827925    -0.38090
N1826       N  0.40422037  0.47122084  0.20874837    -0.38090
N1827       N  0.22823530  0.44733553  0.33227389    -0.37530
N1828       N  0.44179619  0.36537371  0.22958262    -0.37540
C1829       C  0.33030058  0.28903501  0.33972226    -0.04200
C1830       C  0.29351101  0.30628708  0.35824785    -0.01320
C1831       C  0.28209540  0.30069972  0.40153043     0.03670
C1832       C  0.29685686  0.26634231  0.42446043    -0.04200
C1833       C  0.32090684  0.23845637  0.39858341    -0.01310
C1834       C  0.33602059  0.24904651  0.35676676     0.03670
C1835       C  0.26149916  0.32022459  0.33030254     0.38320
C1836       C  0.33181166  0.19873411  0.41436989     0.38310
C1837       C  0.36147829  0.21951363  0.33409593     0.36730
C1838       C  0.24875738  0.32644863  0.41792362     0.36730
N1839       N  0.38313392  0.19482940  0.31913622    -0.38090
N1840       N  0.22040714  0.34742731  0.42609092    -0.38090
N1841       N  0.34220483  0.16643405  0.42437500    -0.37530
N1842       N  0.23572726  0.33204135  0.30862702    -0.37540
C1843       C  0.40734361  0.29530812  0.29645788    -0.04200
C1844       C  0.40347721  0.28368187  0.25389769    -0.01320
C1845       C  0.44009532  0.27288662  0.22812456     0.03670
C1846       C  0.47812713  0.25705045  0.24562784    -0.04200
C1847       C  0.47745753  0.25964885  0.28917517    -0.01310
C1848       C  0.44935852  0.28632597  0.31094337     0.03670
C1849       C  0.36326751  0.28940416  0.23503084     0.38320
C1850       C  0.50084373  0.23150156  0.31421955     0.38310
C1851       C  0.46898047  0.30403811  0.34651457     0.36730
C1852       C  0.44034095  0.28702871  0.18584588     0.36730
N1853       N  0.48654671  0.31409784  0.37568866    -0.38090
N1854       N  0.43933437  0.30178430  0.15333964    -0.38090
N1855       N  0.51467245  0.20899201  0.33792634    -0.37530
N1856       N  0.33044835  0.29383424  0.22125808    -0.37540
C1857       C  0.72284030  0.43953044  0.69897132    -0.04200
C1858       C  0.74827677  0.41077782  0.67581507    -0.01320
C1859       C  0.73468414  0.36934196  0.66724401     0.03670
C1860       C  0.69216343  0.35711194  0.67149642    -0.04200
C1861       C  0.67129855  0.38248979  0.70358326    -0.01310
C1862       C  0.68661180  0.42175377  0.71671265     0.03670
C1863       C  0.78811134  0.42331233  0.65859049     0.38320
C1864       C  0.63523182  0.36919560  0.72755978     0.38310
C1865       C  0.66639693  0.44171052  0.75217050     0.36730
C1866       C  0.76450366  0.33920174  0.65313883     0.36730
N1867       N  0.64899775  0.45551696  0.78091786    -0.38090
N1868       N  0.78868154  0.31552276  0.64092658    -0.38090
N1869       N  0.60701884  0.36245648  0.74951088    -0.37530
N1870       N  0.81973754  0.43162770  0.64284673    -0.37540
C1871       C  0.62573921  0.30736353  0.64963421    -0.04200
C1872       C  0.59460792  0.28587178  0.62534234    -0.01320
C1873       C  0.55836575  0.26535270  0.64369096     0.03670
C1874       C  0.55185656  0.26150810  0.68707703    -0.04200
C1875       C  0.58551415  0.27675313  0.71075908    -0.01310
C1876       C  0.62356062  0.29211116  0.69133003     0.03670
C1877       C  0.60531722  0.26990463  0.58478593     0.38320
C1878       C  0.58110451  0.27754360  0.75549054     0.38310
C1879       C  0.66254888  0.28581094  0.71228799     0.36730
C1880       C  0.53166935  0.24087090  0.61763537     0.36730
N1881       N  0.69506436  0.28197613  0.72692746    -0.38090
N1882       N  0.51165755  0.22043848  0.59664019    -0.38090
N1883       N  0.57670144  0.27907120  0.79119585    -0.37530
N1884       N  0.61170185  0.25343643  0.55342249    -0.37540
C1885       C  0.68538508  0.31051301  0.59103986    -0.04200
C1886       C  0.67528839  0.32289649  0.54917818    -0.01320
C1887       C  0.69998734  0.31050841  0.51426687     0.03670
C1888       C  0.71828798  0.27127699  0.51194736    -0.04200
C1889       C  0.71499536  0.25010687  0.55112233    -0.01310
C1890       C  0.70653027  0.27189192  0.59006540     0.03670
C1891       C  0.63419889  0.33828826  0.53949734     0.38320
C1892       C  0.70917372  0.20646282  0.55124113     0.38310
C1893       C  0.71939602  0.25373555  0.62806517     0.36730
C1894       C  0.71207667  0.34184414  0.48565378     0.36730
N1895       N  0.73272465  0.23992725  0.65791304    -0.38090
N1896       N  0.72390935  0.36868683  0.46571654    -0.38090
N1897       N  0.70239887  0.17181561  0.55176476    -0.37530
N1898       N  0.59973606  0.34538307  0.53158378    -0.37540
C1899       C  0.64304725  0.62969460  0.50165360    -0.04200
C1900       C  0.62161759  0.65838547  0.52735404    -0.01320
C1901       C  0.61758590  0.64897325  0.56937530     0.03670
C1902       C  0.64784436  0.62501659  0.58860419    -0.04200
C1903       C  0.66877391  0.59654661  0.56210452    -0.01310
C1904       C  0.67310979  0.60446591  0.51976981     0.03670
C1905       C  0.59324921  0.68856841  0.51003779     0.38320
C1906       C  0.68688437  0.55987858  0.57785833     0.38310
C1907       C  0.70213527  0.57984391  0.49493859     0.36730
C1908       C  0.57824801  0.65639346  0.59027185     0.36730
N1909       N  0.72563556  0.55825666  0.47788088    -0.38090
N1910       N  0.54780600  0.66533167  0.60796654    -0.38090
N1911       N  0.70337791  0.53164969  0.59112914    -0.37530
N1912       N  0.57019522  0.71233313  0.49668915    -0.37540
C1913       C  0.38411664  0.36678559  0.63844896    -0.04200
C1914       C  0.40180602  0.38142407  0.60224629    -0.01320
C1915       C  0.42924594  0.41273322  0.60501959     0.03670
C1916       C  0.45408886  0.41300056  0.63995483    -0.04200
C1917       C  0.43482279  0.40763863  0.67804203    -0.01310
C1918       C  0.39734071  0.38565414  0.67808101     0.03670
C1919       C  0.40773226  0.35358132  0.56949653     0.38320
C1920       C  0.45455801  0.42170128  0.71548339     0.38310
C1921       C  0.38168503  0.37334232  0.71869976     0.36730
C1922       C  0.41169553  0.45110907  0.59280989     0.36730
N1923       N  0.37108749  0.36430818  0.75194685    -0.38090
N1924       N  0.39724715  0.48130202  0.58134148    -0.38090
N1925       N  0.47026412  0.43333799  0.74524674    -0.37530
N1926       N  0.41577314  0.32668492  0.54787791    -0.37540
C1927       C  0.56005690  0.37715081  0.35781338    -0.04200
C1928       C  0.57551676  0.39966065  0.32257801    -0.01320
C1929       C  0.61506687  0.38966077  0.30564819     0.03670
C1930       C  0.63918404  0.35987723  0.32695039    -0.04200
C1931       C  0.63059972  0.35803613  0.36948236    -0.01310
C1932       C  0.58925415  0.35280229  0.37979068     0.03670
C1933       C  0.54907969  0.42841255  0.30032955     0.38320
C1934       C  0.65077817  0.38664581  0.39651317     0.38310
C1935       C  0.58072893  0.33095707  0.41820860     0.36730
C1936       C  0.62435516  0.40526910  0.26460789     0.36730
N1937       N  0.57390336  0.31328193  0.44858296    -0.38090
N1938       N  0.62659721  0.41977964  0.23199824    -0.38090
N1939       N  0.66443559  0.41097923  0.41841391    -0.37530
N1940       N  0.52973345  0.45110151  0.28093661    -0.37540
C1941       C  0.38305709  0.50766522  0.40720767    -0.04200
C1942       C  0.34476733  0.52599049  0.40858867    -0.01320
C1943       C  0.34523702  0.56805095  0.40142607     0.03670
C1944       C  0.37434431  0.58582097  0.37061364    -0.04200
C1945       C  0.40653740  0.55885862  0.35693562    -0.01310
C1946       C  0.40984036  0.51977739  0.37415303     0.03670
C1947       C  0.31042515  0.50514785  0.43003695     0.38320
C1948       C  0.43861948  0.56967329  0.32738324     0.38310
C1949       C  0.43769397  0.49143683  0.35355869     0.36730
C1950       C  0.32028854  0.58891976  0.43208344     0.36730
N1951       N  0.46217934  0.47296597  0.33447670    -0.38090
N1952       N  0.30048222  0.59998265  0.46014865    -0.38090
N1953       N  0.46703310  0.57462450  0.30531525    -0.37530
N1954       N  0.28322963  0.48846478  0.44689242    -0.37540
C1955       C  0.56382660  0.58426070  0.36809234    -0.04200
C1956       C  0.56425082  0.62666995  0.36848767    -0.01320
C1957       C  0.59992483  0.64465628  0.35365011     0.03670
C1958       C  0.63748554  0.62004822  0.34896281    -0.04200
C1959       C  0.63942418  0.58485637  0.37299664    -0.01310
C1960       C  0.60242039  0.56320890  0.37628393     0.03670
C1961       C  0.53199072  0.65149559  0.38886322     0.38320
C1962       C  0.67861986  0.56617056  0.38525517     0.38310
C1963       C  0.60696924  0.51939404  0.38261084     0.36730
C1964       C  0.59695099  0.68792570  0.34472272     0.36730
N1965       N  0.61250984  0.48469617  0.38633858    -0.38090
N1966       N  0.59519466  0.72294957  0.34119324    -0.38090
N1967       N  0.70865923  0.54864074  0.39415975    -0.37530
N1968       N  0.50843578  0.67204915  0.40719355    -0.37540
C1969       C  0.38755975  0.33207869  0.36497147    -0.04200
C1970       C  0.39290072  0.30497392  0.39925150    -0.01320
C1971       C  0.39482198  0.32078011  0.43929054     0.03670
C1972       C  0.39864396  0.36322243  0.44499273    -0.04200
C1973       C  0.40717383  0.38771935  0.40998345    -0.01310
C1974       C  0.40385370  0.37141304  0.37013074     0.03670
C1975       C  0.41035835  0.26369048  0.39416793     0.38320
C1976       C  0.43156529  0.42403530  0.41588658     0.38310
C1977       C  0.43051207  0.38709283  0.33749175     0.36730
C1978       C  0.40594104  0.29198622  0.47141640     0.36730
N1979       N  0.45513661  0.39641443  0.31264834    -0.38090
N1980       N  0.41841444  0.26604531  0.49213846    -0.38090
N1981       N  0.45369735  0.44997256  0.42523092    -0.37530
N1982       N  0.42642020  0.23182114  0.39328145    -0.37540
C1983       C  0.66163296  0.38022698  0.61246903    -0.04200
C1984       C  0.62934620  0.40801368  0.62510910    -0.01320
C1985       C  0.63225994  0.44979760  0.61381731     0.03670
C1986       C  0.66000703  0.46086871  0.58142577    -0.04200
C1987       C  0.69765032  0.44040426  0.57940358    -0.01310
C1988       C  0.69793150  0.39911153  0.59079456     0.03670
C1989       C  0.59457812  0.39437822  0.65029395     0.38320
C1990       C  0.73135728  0.45772222  0.55398806     0.38310
C1991       C  0.73634114  0.37808830  0.57798661     0.36730
C1992       C  0.60023765  0.47885293  0.62559068     0.36730
N1993       N  0.76755621  0.36384961  0.56592942    -0.38090
N1994       N  0.57493444  0.50276756  0.63480677    -0.38090
N1995       N  0.75805482  0.47132650  0.53367623    -0.37530
N1996       N  0.56743462  0.38286389  0.67130396    -0.37540
C1997       C  0.47154008  0.70000982  0.70209828    -0.04200
C1998       C  0.45737841  0.70605215  0.66118173    -0.01320
C1999       C  0.41629225  0.69383467  0.64775866     0.03670
C2000       C  0.38798656  0.66790427  0.67150070    -0.04200
C2001       C  0.39930410  0.66863256  0.71434160    -0.01310
C2002       C  0.44062530  0.68100525  0.72851705     0.03670
C2003       C  0.48424640  0.72621783  0.63091634     0.38320
C2004       C  0.36692232  0.66252094  0.74543293     0.38310
C2005       C  0.45208065  0.67018597  0.77010866     0.36730
C2006       C  0.40511199  0.71036655  0.60822685     0.36730
N2007       N  0.46047172  0.65941152  0.80303506    -0.38090
N2008       N  0.40114345  0.72563461  0.57637786    -0.38090
N2009       N  0.34261330  0.65673412  0.77176735    -0.37530
N2010       N  0.50189029  0.74181554  0.60362683    -0.37540
C2011       C  0.32564704  0.65399405  0.61290844    -0.04200
C2012       C  0.31862333  0.69671598  0.60894644    -0.01320
C2013       C  0.30912030  0.71566979  0.56978984     0.03670
C2014       C  0.29238277  0.69277750  0.53642147    -0.04200
C2015       C  0.28482814  0.65141878  0.54622542    -0.01310
C2016       C  0.30378064  0.63164750  0.58114846     0.03670
C2017       C  0.31595642  0.72019853  0.64646010     0.38320
C2018       C  0.25218671  0.63050445  0.52403997     0.38310
C2019       C  0.29866355  0.58813751  0.58184311     0.36730
C2020       C  0.31802239  0.75844379  0.56409931     0.36730
N2021       N  0.28950299  0.55454375  0.57659145    -0.38090
N2022       N  0.32675601  0.79227072  0.55911275    -0.38090
N2023       N  0.22521156  0.61380136  0.50782925    -0.37530
N2024       N  0.31176778  0.73636582  0.67808537    -0.37540
C2025       C  0.28564475  0.52239313  0.70234618    -0.04200
C2026       C  0.26461261  0.55470454  0.68184501    -0.01320
C2027       C  0.28408430  0.59388168  0.67380208     0.03670
C2028       C  0.32805222  0.60121125  0.67935999    -0.04200
C2029       C  0.34565825  0.57063586  0.70694860    -0.01310
C2030       C  0.32700620  0.53114962  0.71367575     0.03670
C2031       C  0.22367858  0.54631940  0.66577749     0.38320
C2032       C  0.38153297  0.57837420  0.73251298     0.38310
C2033       C  0.35102873  0.49897001  0.73317670     0.36730
C2034       C  0.25684940  0.62803599  0.66512121     0.36730
N2035       N  0.37119055  0.47359446  0.74785864    -0.38090
N2036       N  0.23479559  0.65543515  0.65902802    -0.38090
N2037       N  0.40940455  0.58178407  0.75457487    -0.37530
N2038       N  0.19131772  0.53899611  0.65228142    -0.37540
C2039       C  0.38842530  0.60584576  0.62568445    -0.04200
C2040       C  0.40811814  0.62159003  0.58940738    -0.01320
C2041       C  0.45037708  0.63280465  0.59031462     0.03670
C2042       C  0.47605385  0.61686995  0.62226226    -0.04200
C2043       C  0.45596400  0.60248659  0.65826391    -0.01310
C2044       C  0.41675932  0.58529538  0.65151625     0.03670
C2045       C  0.38816189  0.62055171  0.54971473     0.38320
C2046       C  0.48112836  0.58662346  0.69158028     0.38310
C2047       C  0.41438611  0.54148971  0.65614290     0.36730
C2048       C  0.46771266  0.65696482  0.55625299     0.36730
N2049       N  0.41492680  0.50689445  0.66294230    -0.38090
N2050       N  0.48108430  0.67595799  0.52890779    -0.38090
N2051       N  0.50062231  0.57220202  0.71761304    -0.37530
N2052       N  0.37363920  0.61931448  0.51720847    -0.37540
loop_ 
_geom_bond_atom_site_label_1 
_geom_bond_atom_site_label_2 
_geom_bond_distance 
_geom_bond_site_symmetry_2 
_ccdc_geom_bond_type 
C1         C2000   1.698       .  S
C1         C2011   1.665       .  S
C1         C2028   1.685       .  S
C1         C2039   1.568       .  S
N2            N3   1.314       .  A
N2            N8   1.304       .  A
N2          Mn31   2.176       .  S
N3           C10   1.362       .  A
N4            N6   1.300       .  A
N4            N5   1.325       .  A
N4          Mn20   2.255       .  S
N5           C11   1.357       .  A
N6            N7   1.303       .  A
N6          Mn31   2.046       .  S
N7           C11   1.337       .  A
N8            N9   1.305       .  A
N8          Mn20   2.158       .  S
N9           C10   1.321       .  A
C10        C1916   1.437       .  S
C11        C1972   1.447       .  S
N12          N18   1.309       .  A
N12          N13   1.297       .  A
N12         Mn42   2.098       .  S
N13          C21   1.326       .  A
N14          N15   1.303       .  A
N14          N16   1.294       .  A
N14         Mn20   2.128       .  S
N15          C22   1.353       .  A
N16          N17   1.301       .  A
N16         Mn42   2.048       .  S
N17          C22   1.345       .  A
N18          N19   1.318       .  A
N18         Mn20   2.144       .  S
N19          C21   1.336       .  A
Mn20        Cl44   2.296       .  S
C21        C1941   1.442       .  S
C22        C2042   1.475       .  S
N23          N24   1.311       .  A
N23          N29   1.292       .  A
N23         Mn31   2.092       .  S
N24          C32   1.355       .  A
N25          N27   1.312       .  A
N25          N26   1.329       .  A
N25         Mn43   2.170       .  S
N26          C33   1.353       .  A
N27          N28   1.287       .  A
N27         Mn31   2.113       .  S
N28          C33   1.318       .  A
N29          N30   1.295       .  A
N29         Mn43   2.048       .  S
N30          C32   1.329       .  A
Mn31        Cl44   2.579       .  S
C32        C1927   1.457       .  S
C33        C1986   1.446       .  S
N34          N35   1.298       .  A
N34          N40   1.289       .  A
N34         Mn42   2.064       .  S
N35          C45   1.347       .  A
N36          N37   1.303       .  A
N36          N38   1.309       .  A
N36         Mn43   2.185       .  S
N37          C46   1.325       .  A
N38          N39   1.299       .  A
N38         Mn42   2.101       .  S
N39          C46   1.339       .  A
N40          N41   1.312       .  A
N40         Mn43   2.135       .  S
N41          C45   1.356       .  A
Mn42        Cl44   2.532       .  S
Mn43        Cl44   2.310       .  S
C45        C1899   1.464       .  S
C46        C1955   1.450       .  S
C47        C1860   1.681       .  S
C47        C1871   1.694       .  S
C47        C1885   1.661       .  S
C47        C1983   1.594       .  S
C48        C1815   1.695       .  S
C48        C1829   1.663       .  S
C48        C1843   1.660       .  S
C48        C1969   1.550       .  S
C49        C1776   1.696       .  S
C49        C1787   1.623       .  S
C49        C1801   1.643       .  S
C49        C1958   1.519       .  S
C50        C1731   1.715       .  S
C50        C1748   1.633       .  S
C50        C1759   1.668       .  S
C50        C1944   1.584       .  S
C51        C1689   1.648       .  S
C51        C1703   1.686       .  S
C51        C1717   1.700       .  S
C51        C1930   1.549       .  S
C52        C1647   1.710       .  S
C52        C1661   1.664       .  S
C52        C1675   1.724       .  S
C52        C1913   1.550       .  S
C53        C1605   1.724       .  S
C53        C1622   1.667       .  S
C53        C1633   1.706       .  S
C53        C1902   1.555       .  S
C54          C55   1.440       .  D
C54        C1563   1.621   1_556  S
C54        C1591   1.571       .  S
C55        C1549   1.598       .  S
C55        C1580   1.582   1_556  S
C56          C57   1.427       .  D
C56        C1507   1.604   1_565  S
C56        C1538   1.614       .  S
C57        C1493   1.591       .  S
C57        C1521   1.611   1_565  S
C58          C59   1.416       .  D
C58        C1454   1.602   1_455  S
C58        C1482   1.579       .  S
C59        C1437   1.591       .  S
C59        C1468   1.555   1_455  S
C60          C61   1.427       .  D
C60        C1720   1.607       .  S
C60        C1846   1.594       .  S
C61        C1412   1.596       .  S
C61        C1423   1.606       .  S
C62          C63   1.437       .  D
C62        C1381   1.607       .  S
C62        C1395   1.626       .  S
C63        C1678   1.621       .  S
C63        C1832   1.602       .  S
C64          C65   1.405       .  D
C64        C1762   1.582       .  S
C64        C1818   1.592       .  S
C65        C1356   1.571       .  S
C65        C1370   1.580       .  S
C66          C67   1.421       .  D
C66        C1297   1.581   1_556  S
C66        C1311   1.566       .  S
C67        C1325   1.598   1_556  S
C67        C1339   1.605       .  S
C68          C69   1.419       .  D
C68        C1269   1.598   1_556  S
C68        C1283   1.592       .  S
C69        C1241   1.601   1_556  S
C69        C1255   1.614       .  S
C70          C71   1.426       .  D
C70        C1213   1.573   1_455  S
C70        C1227   1.606       .  S
C71        C1185   1.612       .  S
C71        C1199   1.621   1_455  S
C72          C73   1.436       .  D
C72        C1692   1.557       .  S
C72        C1804   1.610       .  S
C73        C1160   1.594       .  S
C73        C1171   1.614       .  S
C74          C75   1.426       .  D
C74        C1664   1.652       .  S
C74        C2025   1.579       .  S
C75        C1129   1.628       .  S
C75        C1143   1.550       .  S
C76        C1073   1.671       .  S
C76        C1087   1.724       .  S
C76        C1101   1.661       .  S
C76        C1115   1.535       .  S
N77          N78   1.307   1_455  A
N77          N83   1.303   1_455  A
N77        Mn106   2.124       .  S
N78          C85   1.346       .  A
N79          N81   1.310       .  A
N79          N80   1.322       .  A
N79         Mn95   2.159   1_455  S
N80          C86   1.339       .  A
N81          N82   1.293       .  A
N81        Mn106   2.115       .  S
N82          C86   1.339       .  A
N83          N84   1.292       .  A
N83         Mn95   2.112       .  S
N84          C85   1.329       .  A
C85        C1118   1.416       .  S
C86        C1034   1.451       .  S
N87          N93   1.305       .  A
N87          N88   1.300   1_655  A
N87        Mn117   2.123   1_655  S
N88          C96   1.335       .  A
N89          N90   1.302       .  A
N89          N91   1.300       .  A
N89         Mn95   2.130   1_554  S
N90          C97   1.343       .  A
N91          N92   1.311       .  A
N91        Mn117   2.155   1_655  S
N92          C97   1.347       .  A
N93          N94   1.321   1_655  A
N93         Mn95   2.181   1_554  S
N94          C96   1.358       .  A
Mn95       Cl119   2.388   1_655  S
C96         C989   1.459       .  S
C97        C1003   1.486       .  S
N98          N99   1.311       .  A
N98         N104   1.306       .  A
N98        Mn106   2.164       .  S
N99         C107   1.360       .  A
N100        N102   1.308       .  A
N100        N101   1.319       .  A
N100       Mn118   2.185       .  S
N101        C108   1.356       .  A
N102        N103   1.307       .  A
N102       Mn106   2.106       .  S
N103        C108   1.326       .  A
N104        N105   1.308       .  A
N104       Mn118   2.183       .  S
N105        C107   1.329       .  A
Mn106      Cl119   2.543       .  S
C107       C1048   1.505       .  S
C108       C1017   1.476   1_455  S
N109        N110   1.285   1_455  A
N109        N115   1.312       .  A
N109       Mn117   2.084       .  S
N110        C120   1.323       .  A
N111        N112   1.289       .  A
N111        N113   1.301       .  A
N111       Mn118   2.084   1_554  S
N112        C121   1.333       .  A
N113        N114   1.321       .  A
N113       Mn117   2.132       .  S
N114        C121   1.365       .  A
N115        N116   1.330   1_554  A
N115       Mn118   2.168   1_554  S
N116        C120   1.355   1_456  A
Mn117      Cl119   2.520   1_554  S
Mn118      Cl119   2.389       .  S
C120       C1059   1.454       .  S
C121        C978   1.470       .  S
C122       C1062   1.544       .  S
C122       C1174   1.626       .  S
C122       C1272   1.669       .  S
C122       C1465   1.650       .  S
C123       C1045   1.592       .  S
C123       C1146   1.664       .  S
C123       C1230   1.660       .  S
C123       C1552   1.697       .  S
C124        C961   1.655       .  S
C124       C1031   1.579       .  S
C124       C1132   1.656       .  S
C124       C1314   1.687       .  S
C125        C947   1.687       .  S
C125       C1020   1.584       .  S
C125       C1216   1.662       .  S
C125       C1286   1.658       .  S
C126        C919   1.683       .  S
C126        C936   1.668       .  S
C126       C1006   1.556       .  S
C126       C1157   1.734       .  S
C127        C128   1.432       .  D
C127       C1619   1.627       .  S
C127       C1857   1.587       .  S
C128        C950   1.625       .  S
C128       C1104   1.599       .  S
C129        C905   1.680       .  S
C129        C992   1.546       .  S
C129       C1300   1.675       .  S
C129       C1367   1.642       .  S
C130        C975   1.588       .  S
C130       C1353   1.693       .  S
C130       C1440   1.645       .  S
C130       C1577   1.686       .  S
C131        C132   1.435       .  D
C131        C849   1.599       .  S
C131        C863   1.562   1_565  S
C132        C877   1.630   1_565  S
C132        C891   1.591       .  S
C133        C134   1.428       .  D
C133       C1734   1.615       .  S
C133       C1790   1.597       .  S
C134        C821   1.565       .  S
C134        C835   1.592       .  S
C135        C136   1.414       .  D
C135        C796   1.587       .  S
C135        C807   1.602       .  S
C136       C1650   1.589       .  S
C136       C1874   1.598       .  S
C137        C765   1.678       .  S
C137        C779   1.536       .  S
C137        C810   1.680       .  S
C137       C1258   1.702       .  S
N138        N139   1.315       .  A
N138        N144   1.300       .  A
N138       Mn167   2.093       .  S
N139        C146   1.350       .  A
N140        N142   1.299   1_556  A
N140        N141   1.336   1_556  A
N140       Mn156   2.146       .  S
N141        C147   1.302       .  A
N142        N143   1.318       .  A
N142       Mn167   2.161   1_554  S
N143        C147   1.324       .  A
N144        N145   1.291       .  A
N144       Mn156   2.062       .  S
N145        C146   1.334       .  A
C146        C709   1.451       .  S
C147        C751   1.408       .  S
N148        N154   1.309   1_544  A
N148        N149   1.287       .  A
N148       Mn178   2.154   1_554  S
N149        C157   1.334   1_545  A
N150        N151   1.301       .  A
N150        N152   1.309       .  A
N150       Mn156   2.125   1_545  S
N151        C158   1.342       .  A
N152        N153   1.288       .  A
N152       Mn178   2.074       .  S
N153        C158   1.315       .  A
N154        N155   1.324   1_556  A
N154       Mn156   2.142       .  S
N155        C157   1.355       .  A
Mn156      Cl180   2.652       .  S
C157        C667   1.464   1_565  S
C158        C782   1.432       .  S
N159        N160   1.303       .  A
N159        N165   1.317       .  A
N159       Mn167   2.118   1_554  S
N160        C168   1.339       .  A
N161        N163   1.302       .  A
N161        N162   1.319   1_565  A
N161       Mn179   2.107   1_566  S
N162        C169   1.356   1_545  A
N163        N164   1.296       .  A
N163       Mn167   2.118       .  S
N164        C169   1.331       .  A
N165        N166   1.308       .  A
N165       Mn179   2.103   1_565  S
N166        C168   1.326       .  A
Mn167      Cl180   2.606       .  S
C168        C695   1.465       .  S
C169        C740   1.462       .  S
N170        N171   1.302       .  A
N170        N176   1.291       .  A
N170       Mn178   2.051       .  S
N171        C181   1.320       .  A
N172        N173   1.306       .  A
N172        N174   1.313       .  A
N172       Mn179   2.209       .  S
N173        C182   1.357       .  A
N174        N175   1.303       .  A
N174       Mn178   2.126   1_554  S
N175        C182   1.342       .  A
N176        N177   1.307       .  A
N176       Mn179   2.105   1_556  S
N177        C181   1.345       .  A
Mn178      Cl180   2.463   1_545  S
Mn179      Cl180   2.530   1_544  S
C181        C723   1.420       .  S
C182        C681   1.440       .  S
C183        C639   1.668       .  S
C183        C653   1.688       .  S
C183        C754   1.531       .  S
C183        C838   1.671       .  S
C184        C625   1.670       .  S
C184        C737   1.583       .  S
C184        C894   1.672       .  S
C184       C1342   1.678       .  S
C185        C726   1.555       .  S
C185        C793   1.668       .  S
C185        C880   1.647       .  S
C185       C1594   1.665       .  S
C186        C583   1.678       .  S
C186        C600   1.686       .  S
C186        C611   1.690       .  S
C186        C712   1.556       .  S
C187        C698   1.528       .  S
C187        C824   1.683       .  S
C187       C1328   1.661       .  S
C187       C1496   1.674       .  S
C188        C189   1.425       .  D
C188        C614   1.597       .  S
C188        C628   1.596       .  S
C189       C1608   1.602       .  S
C189       C1997   1.608       .  S
C190        C684   1.591       .  S
C190       C1426   1.662       .  S
C190       C1524   1.691       .  S
C190       C1566   1.656       .  S
C191        C569   1.690       .  S
C191        C670   1.589       .  S
C191       C1244   1.711       .  S
C191       C1409   1.676       .  S
C192        C193   1.438       .  D
C192        C908   1.567       .  S
C192        C933   1.633   1_455  S
C193        C541   1.649       .  S
C193        C555   1.581   1_455  S
C194        C195   1.405       .  D
C194        C572   1.579   1_565  S
C194        C656   1.574       .  S
C195        C513   1.611       .  S
C195        C527   1.604   1_565  S
C196        C197   1.423       .  D
C196        C488   1.600       .  S
C196        C499   1.606       .  S
C197       C1706   1.599       .  S
C197       C1888   1.598       .  S
C198        C199   1.413       .  D
C198       C1745   1.557       .  S
C198       C2014   1.579       .  S
C199        C457   1.613       .  S
C199        C471   1.614       .  S
C200        C446   1.508       .  S
C200        C485   1.688       .  S
C200        C530   1.735       .  S
C200       C1451   1.664       .  S
N201        N202   1.308       .  A
N201        N207   1.304       .  A
N201       Mn230   2.114   1_545  S
N202        C209   1.344       .  A
N203        N205   1.319       .  A
N203        N204   1.294       .  A
N203       Mn219   2.162   1_565  S
N204        C210   1.340       .  A
N205        N206   1.314       .  A
N205       Mn230   2.111       .  S
N206        C210   1.330       .  A
N207        N208   1.295       .  A
N207       Mn219   2.089       .  S
N208        C209   1.330       .  A
C209        C443   1.430   1_455  S
C210        C362   1.439   1_565  S
N211        N217   1.296       .  A
N211        N212   1.308       .  A
N211       Mn241   2.172   1_455  S
N212        C220   1.343       .  A
N213        N214   1.324       .  A
N213        N215   1.290   1_455  A
N213       Mn219   2.224       .  S
N214        C221   1.364   1_455  A
N215        N216   1.293       .  A
N215       Mn241   2.148       .  S
N216        C221   1.314       .  A
N217        N218   1.297       .  A
N217       Mn219   1.994       .  S
N218        C220   1.331       .  A
Mn219      Cl243   2.453   1_545  S
C220        C345   1.399       .  S
C221        C387   1.460       .  S
N222        N223   1.290       .  A
N222        N228   1.308   1_455  A
N222       Mn230   2.132       .  S
N223        C231   1.332       .  A
N224        N226   1.298       .  A
N224        N225   1.310       .  A
N224       Mn242   2.106       .  S
N225        C232   1.343       .  A
N226        N227   1.293       .  A
N226       Mn230   2.032   1_655  S
N227        C232   1.335       .  A
N228        N229   1.319   1_655  A
N228       Mn242   2.145       .  S
N229        C231   1.345       .  A
Mn230      Cl243   2.460       .  S
C231        C415   1.431       .  S
C232        C432   1.449       .  S
N233        N234   1.301   1_545  A
N233        N239   1.292   1_545  A
N233       Mn241   2.114       .  S
N234        C244   1.336       .  A
N235        N236   1.321       .  A
N235        N237   1.307       .  A
N235       Mn242   2.237       .  S
N236        C245   1.358   1_655  A
N237        N238   1.307   1_655  A
N237       Mn241   2.097   1_565  S
N238        C245   1.336       .  A
N239        N240   1.304       .  A
N239       Mn242   2.168       .  S
N240        C244   1.333       .  A
Mn241      Cl243   2.398   1_645  S
Mn242      Cl243   2.400   1_655  S
C244        C376   1.492       .  S
C245        C404   1.465       .  S
C246        C334   1.702       .  S
C246        C429   1.515       .  S
C246        C516   1.678       .  S
C246        C558   1.685       .  S
C247        C418   1.564       .  S
C247        C460   1.746       .  S
C247        C544   1.714       .  S
C247       C1535   1.724       .  S
C248        C317   1.690       .  S
C248        C401   1.586       .  S
C248        C474   1.663       .  S
C248        C852   1.657       .  S
C249        C306   1.717       .  S
C249        C390   1.554       .  S
C249        C502   1.688       .  S
C249       C1202   1.690       .  S
C250        C264   1.634       .  S
C250        C275   1.691       .  S
C250        C289   1.674       .  S
C250        C373   1.556       .  S
C251        C252   1.421       .  D
C251       C1636   1.583       .  S
C251       C1773   1.596       .  S
C252        C292   1.607       .  S
C252        C331   1.588       .  S
C253        C359   1.568       .  S
C253       C1398   1.659       .  S
C253       C1479   1.680       .  S
C253       C1510   1.685       .  S
C254        C348   1.545       .  S
C254        C866   1.649       .  S
C254       C1188   1.711       .  S
C254       C1384   1.696       .  S
C255        C256   1.405       .  D
C255        C964   1.587       .  S
C255       C1090   1.575   1_455  S
C256        C261   1.563   1_455  S
C256        C320   1.554       .  S
C257        C258   1.432       .  D
C257        C586   1.597       .  S
C257        C768   1.600   1_565  S
C258        C278   1.613       .  S
C258        C303   1.615   1_565  S
C259        C260   1.440       .  D
C259        C922   1.615   1_556  S
C259       C1076   1.598       .  S
C260        C597   1.597       .  S
C260        C642   1.579   1_556  S
C261        C262   1.441       .  A
C261        C266   1.406       .  A
C262        C263   1.457       .  A
C262        C267   1.441       .  S
C263        C264   1.437       .  A
C263        C270   1.440       .  S
C264        C265   1.430       .  A
C265        C266   1.394       .  A
C265        C268   1.445       .  S
C266        C269   1.437       .  S
C267        N274   1.157       .  T
C268        N273   1.156       .  T
C269        N271   1.157   1_655  T
C270        N272   1.156       .  T
C275        C276   1.440       .  A
C275        C280   1.460       .  A
C276        C277   1.467       .  A
C276        C281   1.447       .  S
C277        C278   1.442       .  A
C277        C284   1.443       .  S
C278        C279   1.416       .  A
C279        C280   1.451       .  A
C279        C282   1.450       .  S
C280        C283   1.444       .  S
C281        N288   1.158       .  T
C282        N287   1.157       .  T
C283        N285   1.156       .  T
C284        N286   1.157       .  T
C289        C290   1.411       .  A
C289        C294   1.445       .  A
C290        C291   1.449       .  A
C290        C295   1.434       .  S
C291        C292   1.440       .  A
C291        C298   1.438       .  S
C292        C293   1.427       .  A
C293        C294   1.455       .  A
C293        C296   1.448       .  S
C294        C297   1.445       .  S
C295        N302   1.154       .  T
C296        N301   1.157       .  T
C297        N299   1.156       .  T
C298        N300   1.157       .  T
C303        C304   1.434       .  A
C303        C308   1.421       .  A
C304        C305   1.464       .  A
C304        C309   1.447       .  S
C305        C306   1.450       .  A
C305        C312   1.443       .  S
C306        C307   1.462       .  A
C307        C308   1.464       .  A
C307        C310   1.433       .  S
C308        C311   1.451       .  S
C309        N316   1.157       .  T
C310        N315   1.155       .  T
C311        N313   1.157   1_545  T
C312        N314   1.155       .  T
C317        C318   1.470       .  A
C317        C322   1.465       .  A
C318        C319   1.441       .  A
C318        C323   1.437       .  S
C319        C320   1.397       .  A
C319        C326   1.457       .  S
C320        C321   1.402       .  A
C321        C322   1.445       .  A
C321        C324   1.458       .  S
C322        C325   1.429       .  S
C323        N330   1.157       .  T
C324        N329   1.157       .  T
C325        N327   1.157       .  T
C326        N328   1.157       .  T
C331        C332   1.423       .  A
C331        C336   1.402       .  A
C332        C333   1.450       .  A
C332        C337   1.439       .  S
C333        C334   1.427       .  A
C333        C340   1.436       .  S
C334        C335   1.475       .  A
C335        C336   1.448       .  A
C335        C338   1.433       .  S
C336        C339   1.450       .  S
C337        N344   1.157       .  T
C338        N343   1.154       .  T
C339        N341   1.157       .  T
C340        N342   1.153       .  T
C345        C346   1.423       .  A
C345        C350   1.371       .  A
C346        C347   1.389       .  A
C346        C351   1.430       .  S
C347        C348   1.407       .  A
C347        C354   1.452       .  S
C348        C349   1.429       .  A
C349        C350   1.353       .  A
C349        C352   1.439       .  S
C350        C353   1.444       .  S
C351        N358   1.148       .  T
C352        N357   1.157       .  T
C353        N355   1.155   1_545  T
C354        N356   1.157       .  T
C359        C360   1.459       .  A
C359        C364   1.427       .  A
C360        C361   1.392       .  A
C360        C365   1.451       .  S
C361        C362   1.386       .  A
C361        C368   1.468       .  S
C362        C363   1.404       .  A
C363        C364   1.406       .  A
C363        C366   1.453       .  S
C364        C367   1.444       .  S
C365        N372   1.155       .  T
C366        N371   1.158   1_545  T
C367        N369   1.156       .  T
C368        N370   1.157   1_545  T
C373        C374   1.430       .  A
C373        C378   1.384       .  A
C374        C375   1.401       .  A
C374        C379   1.451       .  S
C375        C376   1.431       .  A
C375        C382   1.449       .  S
C376        C377   1.432       .  A
C377        C378   1.369       .  A
C377        C380   1.436       .  S
C378        C381   1.445       .  S
C379        N386   1.157       .  T
C380        N385   1.150       .  T
C381        N383   1.158       .  T
C382        N384   1.156       .  T
C387        C388   1.423       .  A
C387        C392   1.376       .  A
C388        C389   1.377       .  A
C388        C393   1.435       .  S
C389        C390   1.386       .  A
C389        C396   1.432       .  S
C390        C391   1.477       .  A
C391        C392   1.410       .  A
C391        C394   1.449       .  S
C392        C395   1.454       .  S
C393        N400   1.153       .  T
C394        N399   1.158       .  T
C395        N397   1.157       .  T
C396        N398   1.157       .  T
C401        C402   1.409       .  A
C401        C406   1.429       .  A
C402        C403   1.416       .  A
C402        C407   1.447       .  S
C403        C404   1.409       .  A
C403        C410   1.440       .  S
C404        C405   1.393       .  A
C405        C406   1.407       .  A
C405        C408   1.456       .  S
C406        C409   1.431       .  S
C407        N414   1.158       .  T
C408        N413   1.157       .  T
C409        N411   1.152       .  T
C410        N412   1.154       .  T
C415        C416   1.413       .  A
C415        C420   1.385       .  A
C416        C417   1.402       .  A
C416        C421   1.435       .  S
C417        C418   1.413       .  A
C417        C424   1.436       .  S
C418        C419   1.472       .  A
C419        C420   1.400       .  A
C419        C422   1.458       .  S
C420        C423   1.456       .  S
C421        N428   1.154       .  T
C422        N427   1.158       .  T
C423        N425   1.157       .  T
C424        N426   1.154       .  T
C429        C430   1.434       .  A
C429        C434   1.393       .  A
C430        C431   1.371       .  A
C430        C435   1.448       .  S
C431        C432   1.397       .  A
C431        C438   1.457       .  S
C432        C433   1.452       .  A
C433        C434   1.370       .  A
C433        C436   1.451       .  S
C434        C437   1.463       .  S
C435        N442   1.158       .  T
C436        N441   1.154       .  T
C437        N439   1.158       .  T
C438        N440   1.157       .  T
C443        C444   1.400       .  A
C443        C448   1.391       .  A
C444        C445   1.366       .  A
C444        C449   1.396       .  S
C445        C446   1.396       .  A
C445        C452   1.470       .  S
C446        C447   1.447       .  A
C447        C448   1.387       .  A
C447        C450   1.451       .  S
C448        C451   1.448   1_655  S
C449        N456   1.141       .  T
C450        N455   1.157       .  T
C451        N453   1.156       .  T
C452        N454   1.158       .  T
C457        C458   1.475       .  A
C457        C462   1.375       .  A
C458        C459   1.506       .  A
C458        C463   1.433       .  S
C459        C460   1.464       .  A
C459        C466   1.440       .  S
C460        C461   1.466       .  A
C461        C462   1.414       .  A
C461        C464   1.452       .  S
C462        C465   1.436       .  S
C463        N470   1.153       .  T
C464        N469   1.158       .  T
C465        N467   1.156       .  T
C466        N468   1.157       .  T
C471        C472   1.449       .  A
C471        C476   1.415       .  A
C472        C473   1.463       .  A
C472        C477   1.441       .  S
C473        C474   1.441       .  A
C473        C480   1.446       .  S
C474        C475   1.438       .  A
C475        C476   1.431       .  A
C475        C478   1.439       .  S
C476        C479   1.435       .  S
C477        N484   1.157       .  T
C478        N483   1.158       .  T
C479        N481   1.157       .  T
C480        N482   1.157       .  T
C485        C486   1.472       .  A
C485        C490   1.425       .  A
C486        C487   1.416       .  A
C486        C491   1.441       .  S
C487        C488   1.393       .  A
C487        C494   1.442       .  S
C488        C489   1.450       .  A
C489        C490   1.470       .  A
C489        C492   1.439       .  S
C490        C493   1.443       .  S
C491        N498   1.156       .  T
C492        N497   1.158       .  T
C493        N495   1.158       .  T
C494        N496   1.155       .  T
C499        C500   1.440       .  A
C499        C504   1.408       .  A
C500        C501   1.468       .  A
C500        C505   1.442       .  S
C501        C502   1.436       .  A
C501        C508   1.441       .  S
C502        C503   1.475       .  A
C503        C504   1.444       .  A
C503        C506   1.444       .  S
C504        C507   1.458       .  S
C505        N512   1.156       .  T
C506        N511   1.157       .  T
C507        N509   1.158       .  T
C508        N510   1.157       .  T
C513        C514   1.445       .  A
C513        C518   1.419       .  A
C514        C515   1.458       .  A
C514        C519   1.438       .  S
C515        C516   1.417       .  A
C515        C522   1.439       .  S
C516        C517   1.431       .  A
C517        C518   1.452       .  A
C517        C520   1.448       .  S
C518        C521   1.444       .  S
C519        N526   1.157       .  T
C520        N525   1.157       .  T
C521        N523   1.157       .  T
C522        N524   1.157       .  T
C527        C528   1.425       .  A
C527        C532   1.403       .  A
C528        C529   1.467       .  A
C528        C533   1.448       .  S
C529        C530   1.460       .  A
C529        C536   1.433       .  S
C530        C531   1.490       .  A
C531        C532   1.456       .  A
C531        C534   1.446       .  S
C532        C535   1.450       .  S
C533        N540   1.157       .  T
C534        N539   1.156       .  T
C535        N537   1.157   1_545  T
C536        N538   1.155       .  T
C541        C542   1.425       .  A
C541        C546   1.447       .  A
C542        C543   1.453       .  A
C542        C547   1.440       .  S
C543        C544   1.484       .  A
C543        C550   1.454       .  S
C544        C545   1.431       .  A
C545        C546   1.464       .  A
C545        C548   1.429       .  S
C546        C549   1.441       .  S
C547        N554   1.152   1_455  T
C548        N553   1.152       .  T
C549        N551   1.158       .  T
C550        N552   1.154       .  T
C555        C556   1.418       .  A
C555        C560   1.405       .  A
C556        C557   1.460       .  A
C556        C561   1.451       .  S
C557        C558   1.458       .  A
C557        C564   1.441       .  S
C558        C559   1.455       .  A
C559        C560   1.441       .  A
C559        C562   1.433       .  S
C560        C563   1.453       .  S
C561        N568   1.157       .  T
C562        N567   1.155       .  T
C563        N565   1.157   1_655  T
C564        N566   1.157       .  T
C569        C570   1.475       .  A
C569        C574   1.411       .  A
C570        C571   1.441       .  A
C570        C575   1.436       .  S
C571        C572   1.397       .  A
C571        C578   1.458       .  S
C572        C573   1.434       .  A
C573        C574   1.451       .  A
C573        C576   1.437       .  S
C574        C577   1.430       .  S
C575        N582   1.154       .  T
C576        N581   1.157       .  T
C577        N579   1.151       .  T
C578        N580   1.157   1_545  T
C583        C584   1.439       .  A
C583        C588   1.426       .  A
C584        C585   1.446       .  A
C584        C589   1.442       .  S
C585        C586   1.424       .  A
C585        C592   1.448       .  S
C586        C587   1.435       .  A
C587        C588   1.454       .  A
C587        C590   1.445       .  S
C588        C591   1.435       .  S
C589        N596   1.155       .  T
C590        N595   1.157       .  T
C591        N593   1.153       .  T
C592        N594   1.158       .  T
C597        C598   1.422       .  A
C597        C602   1.426       .  A
C598        C599   1.454       .  A
C598        C603   1.448       .  S
C599        C600   1.453       .  A
C599        C606   1.433       .  S
C600        C601   1.463       .  A
C601        C602   1.443       .  A
C601        C604   1.454       .  S
C602        C605   1.452       .  S
C603        N610   1.157       .  T
C604        N609   1.158       .  T
C605        N607   1.158       .  T
C606        N608   1.157       .  T
C611        C612   1.469       .  A
C611        C616   1.411       .  A
C612        C613   1.452       .  A
C612        C617   1.452       .  S
C613        C614   1.420       .  A
C613        C620   1.450       .  S
C614        C615   1.437       .  A
C615        C616   1.440       .  A
C615        C618   1.436       .  S
C616        C619   1.442       .  S
C617        N624   1.158       .  T
C618        N623   1.157       .  T
C619        N621   1.157       .  T
C620        N622   1.157       .  T
C625        C626   1.447       .  A
C625        C630   1.435       .  A
C626        C627   1.452       .  A
C626        C631   1.434       .  S
C627        C628   1.416       .  A
C627        C634   1.447       .  S
C628        C629   1.434       .  A
C629        C630   1.451       .  A
C629        C632   1.442       .  S
C630        C633   1.443       .  S
C631        N638   1.154       .  T
C632        N637   1.157       .  T
C633        N635   1.155       .  T
C634        N636   1.157       .  T
C639        C640   1.440       .  A
C639        C644   1.431       .  A
C640        C641   1.449       .  A
C640        C645   1.417       .  S
C641        C642   1.413       .  A
C641        C648   1.447       .  S
C642        C643   1.409       .  A
C643        C644   1.424       .  A
C643        C646   1.439       .  S
C644        C647   1.441       .  S
C645        N652   1.149       .  T
C646        N651   1.157   1_554  T
C647        N649   1.157       .  T
C648        N650   1.158       .  T
C653        C654   1.456       .  A
C653        C658   1.469       .  A
C654        C655   1.453       .  A
C654        C659   1.437       .  S
C655        C656   1.422       .  A
C655        C662   1.449       .  S
C656        C657   1.394       .  A
C657        C658   1.431       .  A
C657        C660   1.446       .  S
C658        C661   1.440       .  S
C659        N666   1.157       .  T
C660        N665   1.156       .  T
C661        N663   1.153       .  T
C662        N664   1.158       .  T
C667        C668   1.390       .  A
C667        C672   1.378       .  A
C668        C669   1.407       .  A
C668        C673   1.425   1_545  S
C669        C670   1.423       .  A
C669        C676   1.430       .  S
C670        C671   1.454       .  A
C671        C672   1.422       .  A
C671        C674   1.436       .  S
C672        C675   1.459       .  S
C673        N680   1.151       .  T
C674        N679   1.155   1_554  T
C675        N677   1.158   1_545  T
C676        N678   1.151       .  T
C681        C682   1.400       .  A
C681        C686   1.352       .  A
C682        C683   1.399       .  A
C682        C687   1.453       .  S
C683        C684   1.451       .  A
C683        C690   1.453       .  S
C684        C685   1.481       .  A
C685        C686   1.396       .  A
C685        C688   1.444       .  S
C686        C689   1.456       .  S
C687        N694   1.154       .  T
C688        N693   1.159       .  T
C689        N691   1.157       .  T
C690        N692   1.159       .  T
C695        C696   1.381       .  A
C695        C700   1.390       .  A
C696        C697   1.386       .  A
C696        C701   1.442       .  S
C697        C698   1.427       .  A
C697        C704   1.440       .  S
C698        C699   1.461       .  A
C699        C700   1.391       .  A
C699        C702   1.456       .  S
C700        C703   1.450       .  S
C701        N708   1.154       .  T
C702        N707   1.158       .  T
C703        N705   1.155       .  T
C704        N706   1.153       .  T
C709        C710   1.410       .  A
C709        C714   1.419       .  A
C710        C711   1.409       .  A
C710        C715   1.456       .  S
C711        C712   1.415       .  A
C711        C718   1.438       .  S
C712        C713   1.425       .  A
C713        C714   1.397       .  A
C713        C716   1.455       .  S
C714        C717   1.451       .  S
C715        N722   1.157       .  T
C716        N721   1.158       .  T
C717        N719   1.155       .  T
C718        N720   1.154       .  T
C723        C724   1.362       .  A
C723        C728   1.389       .  A
C724        C725   1.392       .  A
C724        C729   1.463       .  S
C725        C726   1.459       .  A
C725        C732   1.442       .  S
C726        C727   1.437       .  A
C727        C728   1.387       .  A
C727        C730   1.446       .  S
C728        C731   1.449       .  S
C729        N736   1.157       .  T
C730        N735   1.155       .  T
C731        N733   1.157       .  T
C732        N734   1.157       .  T
C737        C738   1.464       .  A
C737        C742   1.428       .  A
C738        C739   1.399       .  A
C738        C743   1.459       .  S
C739        C740   1.413       .  A
C739        C746   1.465       .  S
C740        C741   1.409       .  A
C741        C742   1.413       .  A
C741        C744   1.451       .  S
C742        C745   1.438       .  S
C743        N750   1.158       .  T
C744        N749   1.157       .  T
C745        N747   1.153       .  T
C746        N748   1.159       .  T
C751        C752   1.403       .  A
C751        C756   1.375       .  A
C752        C753   1.371       .  A
C752        C757   1.461       .  S
C753        C754   1.418       .  A
C753        C760   1.445       .  S
C754        C755   1.451       .  A
C755        C756   1.395       .  A
C755        C758   1.458       .  S
C756        C759   1.456       .  S
C757        N764   1.157   1_554  T
C758        N763   1.158       .  T
C759        N761   1.156       .  T
C760        N762   1.156       .  T
C765        C766   1.438       .  A
C765        C770   1.458       .  A
C766        C767   1.457       .  A
C766        C771   1.439       .  S
C767        C768   1.435       .  A
C767        C774   1.445       .  S
C768        C769   1.422       .  A
C769        C770   1.453       .  A
C769        C772   1.451       .  S
C770        C773   1.444       .  S
C771        N778   1.154       .  T
C772        N777   1.157   1_545  T
C773        N775   1.158       .  T
C774        N776   1.157       .  T
C779        C780   1.446       .  A
C779        C784   1.468       .  A
C780        C781   1.386       .  A
C780        C785   1.433       .  S
C781        C782   1.369       .  A
C781        C788   1.455       .  S
C782        C783   1.378       .  A
C783        C784   1.378       .  A
C783        C786   1.454       .  S
C784        C787   1.457       .  S
C785        N792   1.152       .  T
C786        N791   1.157       .  T
C787        N789   1.158       .  T
C788        N790   1.157       .  T
C793        C794   1.443       .  A
C793        C798   1.433       .  A
C794        C795   1.452       .  A
C794        C799   1.437       .  S
C795        C796   1.416       .  A
C795        C802   1.448       .  S
C796        C797   1.421       .  A
C797        C798   1.445       .  A
C797        C800   1.451       .  S
C798        C801   1.429       .  S
C799        N806   1.154       .  T
C800        N805   1.157       .  T
C801        N803   1.152       .  T
C802        N804   1.157       .  T
C807        C808   1.403       .  A
C807        C812   1.456       .  A
C808        C809   1.409       .  A
C808        C813   1.433       .  S
C809        C810   1.453       .  A
C809        C816   1.443       .  S
C810        C811   1.431       .  A
C811        C812   1.473       .  A
C811        C814   1.436       .  S
C812        C815   1.443       .  S
C813        N820   1.153       .  T
C814        N819   1.154       .  T
C815        N817   1.157       .  T
C816        N818   1.155       .  T
C821        C822   1.426       .  A
C821        C826   1.397       .  A
C822        C823   1.461       .  A
C822        C827   1.450       .  S
C823        C824   1.448       .  A
C823        C830   1.436       .  S
C824        C825   1.481       .  A
C825        C826   1.437       .  A
C825        C828   1.443       .  S
C826        C829   1.457       .  S
C827        N834   1.157       .  T
C828        N833   1.156       .  T
C829        N831   1.156       .  T
C830        N832   1.153       .  T
C835        C836   1.420       .  A
C835        C840   1.459       .  A
C836        C837   1.417       .  A
C836        C841   1.438       .  S
C837        C838   1.466       .  A
C837        C844   1.447       .  S
C838        C839   1.405       .  A
C839        C840   1.462       .  A
C839        C842   1.442       .  S
C840        C843   1.437       .  S
C841        N848   1.156       .  T
C842        N847   1.158       .  T
C843        N845   1.156       .  T
C844        N846   1.158       .  T
C849        C850   1.425       .  A
C849        C854   1.427       .  A
C850        C851   1.441       .  A
C850        C855   1.430       .  S
C851        C852   1.403       .  A
C851        C858   1.444       .  S
C852        C853   1.437       .  A
C853        C854   1.455       .  A
C853        C856   1.436       .  S
C854        C857   1.443       .  S
C855        N862   1.158       .  T
C856        N861   1.153       .  T
C857        N859   1.156       .  T
C858        N860   1.157       .  T
C863        C864   1.426       .  A
C863        C868   1.409       .  A
C864        C865   1.445       .  A
C864        C869   1.441       .  S
C865        C866   1.424       .  A
C865        C872   1.433       .  S
C866        C867   1.456       .  A
C867        C868   1.438       .  A
C867        C870   1.436       .  S
C868        C871   1.449       .  S
C869        N876   1.156       .  T
C870        N875   1.153       .  T
C871        N873   1.155       .  T
C872        N874   1.154       .  T
C877        C878   1.437       .  A
C877        C882   1.417       .  A
C878        C879   1.445       .  A
C878        C883   1.444       .  S
C879        C880   1.418       .  A
C879        C886   1.444       .  S
C880        C881   1.452       .  A
C881        C882   1.456       .  A
C881        C884   1.449       .  S
C882        C885   1.439       .  S
C883        N890   1.158       .  T
C884        N889   1.157       .  T
C885        N887   1.157       .  T
C886        N888   1.157       .  T
C891        C892   1.438       .  A
C891        C896   1.405       .  A
C892        C893   1.457       .  A
C892        C897   1.443       .  S
C893        C894   1.426       .  A
C893        C900   1.448       .  S
C894        C895   1.475       .  A
C895        C896   1.442       .  A
C895        C898   1.448       .  S
C896        C899   1.452       .  S
C897        N904   1.158       .  T
C898        N903   1.157       .  T
C899        N901   1.155       .  T
C900        N902   1.157       .  T
C905        C906   1.462       .  A
C905        C910   1.419       .  A
C906        C907   1.448       .  A
C906        C911   1.443       .  S
C907        C908   1.416       .  A
C907        C914   1.452       .  S
C908        C909   1.420       .  A
C909        C910   1.444       .  A
C909        C912   1.449       .  S
C910        C913   1.433       .  S
C911        N918   1.158       .  T
C912        N917   1.158       .  T
C913        N915   1.151       .  T
C914        N916   1.156       .  T
C919        C920   1.420       .  A
C919        C924   1.457       .  A
C920        C921   1.452       .  A
C920        C925   1.443       .  S
C921        C922   1.446       .  A
C921        C928   1.439       .  S
C922        C923   1.424       .  A
C923        C924   1.459       .  A
C923        C926   1.450       .  S
C924        C927   1.442       .  S
C925        N932   1.155       .  T
C926        N931   1.157   1_554  T
C927        N929   1.157       .  T
C928        N930   1.158       .  T
C933        C934   1.435       .  A
C933        C938   1.437       .  A
C934        C935   1.458       .  A
C934        C939   1.437   1_655  S
C935        C936   1.459       .  A
C935        C942   1.456       .  S
C936        C937   1.406       .  A
C937        C938   1.453       .  A
C937        C940   1.440       .  S
C938        C941   1.437       .  S
C939        N946   1.156       .  T
C940        N945   1.157       .  T
C941        N943   1.157       .  T
C942        N944   1.157       .  T
C947        C948   1.446       .  A
C947        C952   1.444       .  A
C948        C949   1.472       .  A
C948        C953   1.441       .  S
C949        C950   1.451       .  A
C949        C956   1.436       .  S
C950        C951   1.413       .  A
C951        C952   1.434       .  A
C951        C954   1.431       .  S
C952        C955   1.436       .  S
C953        N960   1.156       .  T
C954        N959   1.157       .  T
C955        N957   1.155       .  T
C956        N958   1.157       .  T
C961        C962   1.452       .  A
C961        C966   1.408       .  A
C962        C963   1.465       .  A
C962        C967   1.436       .  S
C963        C964   1.438       .  A
C963        C970   1.445       .  S
C964        C965   1.416       .  A
C965        C966   1.430       .  A
C965        C968   1.441       .  S
C966        C969   1.440       .  S
C967        N974   1.154       .  T
C968        N973   1.157       .  T
C969        N971   1.154       .  T
C970        N972   1.157       .  T
C975        C976   1.454       .  A
C975        C980   1.441       .  A
C976        C977   1.406       .  A
C976        C981   1.441       .  S
C977        C978   1.382       .  A
C977        C984   1.458       .  S
C978        C979   1.417       .  A
C979        C980   1.423       .  A
C979        C982   1.455       .  S
C980        C983   1.443       .  S
C981        N988   1.154       .  T
C982        N987   1.157       .  T
C983        N985   1.154       .  T
C984        N986   1.158       .  T
C989        C990   1.418       .  A
C989        C994   1.405       .  A
C990        C991   1.397       .  A
C990        C995   1.411       .  S
C991        C992   1.391       .  A
C991        C998   1.451       .  S
C992        C993   1.418       .  A
C993        C994   1.395       .  A
C993        C996   1.438       .  S
C994        C997   1.454       .  S
C995       N1002   1.140       .  T
C996       N1001   1.154       .  T
C997        N999   1.157       .  T
C998       N1000   1.157       .  T
C1003      C1004   1.428       .  A
C1003      C1008   1.412       .  A
C1004      C1005   1.393       .  A
C1004      C1009   1.446       .  S
C1005      C1006   1.428       .  A
C1005      C1012   1.461       .  S
C1006      C1007   1.418       .  A
C1007      C1008   1.403       .  A
C1007      C1010   1.441       .  S
C1008      C1011   1.454       .  S
C1009      N1016   1.156       .  T
C1010      N1015   1.156   1_554  T
C1011      N1013   1.156   1_554  T
C1012      N1014   1.156       .  T
C1017      C1018   1.391       .  A
C1017      C1022   1.379       .  A
C1018      C1019   1.404       .  A
C1018      C1023   1.455       .  S
C1019      C1020   1.458       .  A
C1019      C1026   1.449       .  S
C1020      C1021   1.429       .  A
C1021      C1022   1.389       .  A
C1021      C1024   1.433       .  S
C1022      C1025   1.426       .  S
C1023      N1030   1.157   1_655  T
C1024      N1029   1.156       .  T
C1025      N1027   1.150       .  T
C1026      N1028   1.157       .  T
C1031      C1032   1.440       .  A
C1031      C1036   1.437       .  A
C1032      C1033   1.412       .  A
C1032      C1037   1.444       .  S
C1033      C1034   1.376       .  A
C1033      C1040   1.446       .  S
C1034      C1035   1.393       .  A
C1035      C1036   1.409       .  A
C1035      C1038   1.424       .  S
C1036      C1039   1.449       .  S
C1037      N1044   1.155       .  T
C1038      N1043   1.147   1_455  T
C1039      N1041   1.156       .  T
C1040      N1042   1.157       .  T
C1045      C1046   1.429       .  A
C1045      C1050   1.412       .  A
C1046      C1047   1.417       .  A
C1046      C1051   1.446       .  S
C1047      C1048   1.439       .  A
C1047      C1054   1.454       .  S
C1048      C1049   1.394       .  A
C1049      C1050   1.383       .  A
C1049      C1052   1.436       .  S
C1050      C1053   1.434       .  S
C1051      N1058   1.155       .  T
C1052      N1057   1.152       .  T
C1053      N1055   1.154       .  T
C1054      N1056   1.156   1_556  T
C1059      C1060   1.387       .  A
C1059      C1064   1.425       .  A
C1060      C1061   1.415       .  A
C1060      C1065   1.447       .  S
C1061      C1062   1.428       .  A
C1061      C1068   1.436       .  S
C1062      C1063   1.436       .  A
C1063      C1064   1.404       .  A
C1063      C1066   1.453       .  S
C1064      C1067   1.448   1_554  S
C1065      N1072   1.157       .  T
C1066      N1071   1.157       .  T
C1067      N1069   1.157       .  T
C1068      N1070   1.154   1_655  T
C1073      C1074   1.425       .  A
C1073      C1078   1.466       .  A
C1074      C1075   1.455       .  A
C1074      C1079   1.449       .  S
C1075      C1076   1.436       .  A
C1075      C1082   1.436       .  S
C1076      C1077   1.413       .  A
C1077      C1078   1.442       .  A
C1077      C1080   1.448       .  S
C1078      C1081   1.447       .  S
C1079      N1086   1.158       .  T
C1080      N1085   1.156       .  T
C1081      N1083   1.155       .  T
C1082      N1084   1.155       .  T
C1087      C1088   1.469       .  A
C1087      C1092   1.482       .  A
C1088      C1089   1.459       .  A
C1088      C1093   1.430       .  S
C1089      C1090   1.413       .  A
C1089      C1096   1.454       .  S
C1090      C1091   1.397       .  A
C1091      C1092   1.454       .  A
C1091      C1094   1.459       .  S
C1092      C1095   1.434       .  S
C1093      N1100   1.155       .  T
C1094      N1099   1.157   1_655  T
C1095      N1097   1.154       .  T
C1096      N1098   1.157       .  T
C1101      C1102   1.448       .  A
C1101      C1106   1.413       .  A
C1102      C1103   1.456       .  A
C1102      C1107   1.442       .  S
C1103      C1104   1.429       .  A
C1103      C1110   1.448       .  S
C1104      C1105   1.440       .  A
C1105      C1106   1.446       .  A
C1105      C1108   1.438       .  S
C1106      C1109   1.445       .  S
C1107      N1114   1.156       .  T
C1108      N1113   1.158       .  T
C1109      N1111   1.156       .  T
C1110      N1112   1.156       .  T
C1115      C1116   1.435       .  A
C1115      C1120   1.425       .  A
C1116      C1117   1.378       .  A
C1116      C1121   1.440       .  S
C1117      C1118   1.370       .  A
C1117      C1124   1.445       .  S
C1118      C1119   1.423       .  A
C1119      C1120   1.381       .  A
C1119      C1122   1.451       .  S
C1120      C1123   1.452       .  S
C1121      N1128   1.158       .  T
C1122      N1127   1.156       .  T
C1123      N1125   1.157       .  T
C1124      N1126   1.154       .  T
C1129      C1130   1.446       .  A
C1129      C1134   1.435       .  A
C1130      C1131   1.458       .  A
C1130      C1135   1.440       .  S
C1131      C1132   1.435       .  A
C1131      C1138   1.440       .  S
C1132      C1133   1.434       .  A
C1133      C1134   1.433       .  A
C1133      C1136   1.438       .  S
C1134      C1137   1.435       .  S
C1135      N1142   1.157       .  T
C1136      N1141   1.154       .  T
C1137      N1139   1.158       .  T
C1138      N1140   1.156       .  T
C1143      C1144   1.405       .  A
C1143      C1148   1.422       .  A
C1144      C1145   1.445       .  A
C1144      C1149   1.460       .  S
C1145      C1146   1.457       .  A
C1145      C1152   1.437       .  S
C1146      C1147   1.424       .  A
C1147      C1148   1.440       .  A
C1147      C1150   1.437       .  S
C1148      C1151   1.448       .  S
C1149      N1156   1.158       .  T
C1150      N1155   1.153       .  T
C1151      N1153   1.156       .  T
C1152      N1154   1.154       .  T
C1157      C1158   1.471       .  A
C1157      C1162   1.477       .  A
C1158      C1159   1.465       .  A
C1158      C1163   1.429       .  S
C1159      C1160   1.414       .  A
C1159      C1166   1.454       .  S
C1160      C1161   1.408       .  A
C1161      C1162   1.455       .  A
C1161      C1164   1.452       .  S
C1162      C1165   1.444       .  S
C1163      N1170   1.156       .  T
C1164      N1169   1.157       .  T
C1165      N1167   1.156       .  T
C1166      N1168   1.157       .  T
C1171      C1172   1.437       .  A
C1171      C1176   1.408       .  A
C1172      C1173   1.430       .  A
C1172      C1177   1.446       .  S
C1173      C1174   1.421       .  A
C1173      C1180   1.450       .  S
C1174      C1175   1.451       .  A
C1175      C1176   1.451       .  A
C1175      C1178   1.446       .  S
C1176      C1179   1.445       .  S
C1177      N1184   1.158       .  T
C1178      N1183   1.157       .  T
C1179      N1181   1.158       .  T
C1180      N1182   1.157       .  T
C1185      C1186   1.436       .  A
C1185      C1190   1.415       .  A
C1186      C1187   1.477       .  A
C1186      C1191   1.443       .  S
C1187      C1188   1.458       .  A
C1187      C1194   1.436       .  S
C1188      C1189   1.454       .  A
C1189      C1190   1.433       .  A
C1189      C1192   1.443       .  S
C1190      C1193   1.443       .  S
C1191      N1198   1.157       .  T
C1192      N1197   1.157       .  T
C1193      N1195   1.157       .  T
C1194      N1196   1.154       .  T
C1199      C1200   1.373       .  A
C1199      C1204   1.456       .  A
C1200      C1201   1.406       .  A
C1200      C1205   1.448   1_655  S
C1201      C1202   1.490       .  A
C1201      C1208   1.437       .  S
C1202      C1203   1.433       .  A
C1203      C1204   1.475       .  A
C1203      C1206   1.446       .  S
C1204      C1207   1.443       .  S
C1205      N1212   1.155       .  T
C1206      N1211   1.157       .  T
C1207      N1209   1.157       .  T
C1208      N1210   1.157   1_655  T
C1213      C1214   1.403       .  A
C1213      C1218   1.433       .  A
C1214      C1215   1.430       .  A
C1214      C1219   1.459       .  S
C1215      C1216   1.462       .  A
C1215      C1222   1.440       .  S
C1216      C1217   1.433       .  A
C1217      C1218   1.458       .  A
C1217      C1220   1.443       .  S
C1218      C1221   1.446       .  S
C1219      N1226   1.157   1_655  T
C1220      N1225   1.156       .  T
C1221      N1223   1.157       .  T
C1222      N1224   1.157       .  T
C1227      C1228   1.427       .  A
C1227      C1232   1.398       .  A
C1228      C1229   1.458       .  A
C1228      C1233   1.446       .  S
C1229      C1230   1.446       .  A
C1229      C1236   1.436       .  S
C1230      C1231   1.445       .  A
C1231      C1232   1.423       .  A
C1231      C1234   1.429       .  S
C1232      C1235   1.429       .  S
C1233      N1240   1.157       .  T
C1234      N1239   1.158       .  T
C1235      N1237   1.154       .  T
C1236      N1238   1.153       .  T
C1241      C1242   1.421       .  A
C1241      C1246   1.422       .  A
C1242      C1243   1.462       .  A
C1242      C1247   1.451       .  S
C1243      C1244   1.466       .  A
C1243      C1250   1.444       .  S
C1244      C1245   1.456       .  A
C1245      C1246   1.459       .  A
C1245      C1248   1.449       .  S
C1246      C1249   1.448       .  S
C1247      N1254   1.157   1_554  T
C1248      N1253   1.156       .  T
C1249      N1251   1.157       .  T
C1250      N1252   1.156       .  T
C1255      C1256   1.446       .  A
C1255      C1260   1.387       .  A
C1256      C1257   1.484       .  A
C1256      C1261   1.446       .  S
C1257      C1258   1.453       .  A
C1257      C1264   1.432       .  S
C1258      C1259   1.462       .  A
C1259      C1260   1.427       .  A
C1259      C1262   1.441       .  S
C1260      C1263   1.422       .  S
C1261      N1268   1.157       .  T
C1262      N1267   1.158       .  T
C1263      N1265   1.155       .  T
C1264      N1266   1.152       .  T
C1269      C1270   1.436       .  A
C1269      C1274   1.413       .  A
C1270      C1271   1.423       .  A
C1270      C1275   1.447       .  S
C1271      C1272   1.462       .  A
C1271      C1278   1.438       .  S
C1272      C1273   1.482       .  A
C1273      C1274   1.450       .  A
C1273      C1276   1.440       .  S
C1274      C1277   1.449   1_554  S
C1275      N1282   1.158       .  T
C1276      N1281   1.155       .  T
C1277      N1279   1.157       .  T
C1278      N1280   1.156       .  T
C1283      C1284   1.426       .  A
C1283      C1288   1.432       .  A
C1284      C1285   1.457       .  A
C1284      C1289   1.449       .  S
C1285      C1286   1.446       .  A
C1285      C1292   1.442       .  S
C1286      C1287   1.426       .  A
C1287      C1288   1.441       .  A
C1287      C1290   1.442       .  S
C1288      C1291   1.446       .  S
C1289      N1296   1.157       .  T
C1290      N1295   1.155       .  T
C1291      N1293   1.157       .  T
C1292      N1294   1.157       .  T
C1297      C1298   1.421       .  A
C1297      C1302   1.414       .  A
C1298      C1299   1.449       .  A
C1298      C1303   1.448       .  S
C1299      C1300   1.442       .  A
C1299      C1306   1.440       .  S
C1300      C1301   1.459       .  A
C1301      C1302   1.439       .  A
C1301      C1304   1.444       .  S
C1302      C1305   1.448       .  S
C1303      N1310   1.157       .  T
C1304      N1309   1.154       .  T
C1305      N1307   1.155   1_554  T
C1306      N1308   1.155       .  T
C1311      C1312   1.410       .  A
C1311      C1316   1.408       .  A
C1312      C1313   1.442       .  A
C1312      C1317   1.457       .  S
C1313      C1314   1.473       .  A
C1313      C1320   1.445       .  S
C1314      C1315   1.464       .  A
C1315      C1316   1.447       .  A
C1315      C1318   1.438       .  S
C1316      C1319   1.456       .  S
C1317      N1324   1.157       .  T
C1318      N1323   1.154       .  T
C1319      N1321   1.157       .  T
C1320      N1322   1.159       .  T
C1325      C1326   1.440       .  A
C1325      C1330   1.409       .  A
C1326      C1327   1.464       .  A
C1326      C1331   1.439       .  S
C1327      C1328   1.430       .  A
C1327      C1334   1.436       .  S
C1328      C1329   1.438       .  A
C1329      C1330   1.421       .  A
C1329      C1332   1.438       .  S
C1330      C1333   1.436       .  S
C1331      N1338   1.157       .  T
C1332      N1337   1.157       .  T
C1333      N1335   1.155   1_554  T
C1334      N1336   1.155       .  T
C1339      C1340   1.445       .  A
C1339      C1344   1.407       .  A
C1340      C1341   1.464       .  A
C1340      C1345   1.443       .  S
C1341      C1342   1.439       .  A
C1341      C1348   1.439       .  S
C1342      C1343   1.454       .  A
C1343      C1344   1.424       .  A
C1343      C1346   1.439       .  S
C1344      C1347   1.442       .  S
C1345      N1352   1.157       .  T
C1346      N1351   1.152       .  T
C1347      N1349   1.156       .  T
C1348      N1350   1.155       .  T
C1353      C1354   1.468       .  A
C1353      C1358   1.465       .  A
C1354      C1355   1.450       .  A
C1354      C1359   1.446       .  S
C1355      C1356   1.409       .  A
C1355      C1362   1.451       .  S
C1356      C1357   1.412       .  A
C1357      C1358   1.448       .  A
C1357      C1360   1.452       .  S
C1358      C1361   1.440       .  S
C1359      N1366   1.157       .  T
C1360      N1365   1.157       .  T
C1361      N1363   1.159       .  T
C1362      N1364   1.157       .  T
C1367      C1368   1.446       .  A
C1367      C1372   1.407       .  A
C1368      C1369   1.442       .  A
C1368      C1373   1.444       .  S
C1369      C1370   1.416       .  A
C1369      C1376   1.449       .  S
C1370      C1371   1.433       .  A
C1371      C1372   1.444       .  A
C1371      C1374   1.440       .  S
C1372      C1375   1.434       .  S
C1373      N1380   1.158       .  T
C1374      N1379   1.156       .  T
C1375      N1377   1.154       .  T
C1376      N1378   1.157       .  T
C1381      C1382   1.412       .  A
C1381      C1386   1.437       .  A
C1382      C1383   1.445       .  A
C1382      C1387   1.447       .  S
C1383      C1384   1.464       .  A
C1383      C1390   1.441       .  S
C1384      C1385   1.436       .  A
C1385      C1386   1.471       .  A
C1385      C1388   1.434       .  S
C1386      C1389   1.443       .  S
C1387      N1394   1.155       .  T
C1388      N1393   1.154       .  T
C1389      N1391   1.157       .  T
C1390      N1392   1.159       .  T
C1395      C1396   1.436       .  A
C1395      C1400   1.417       .  A
C1396      C1397   1.439       .  A
C1396      C1401   1.444       .  S
C1397      C1398   1.425       .  A
C1397      C1404   1.440       .  S
C1398      C1399   1.467       .  A
C1399      C1400   1.450       .  A
C1399      C1402   1.454       .  S
C1400      C1403   1.435       .  S
C1401      N1408   1.158       .  T
C1402      N1407   1.157       .  T
C1403      N1405   1.155       .  T
C1404      N1406   1.155       .  T
C1409      C1410   1.434       .  A
C1409      C1414   1.447       .  A
C1410      C1411   1.449       .  A
C1410      C1415   1.441       .  S
C1411      C1412   1.402       .  A
C1411      C1418   1.440       .  S
C1412      C1413   1.430       .  A
C1413      C1414   1.458       .  A
C1413      C1416   1.439       .  S
C1414      C1417   1.436       .  S
C1415      N1422   1.156       .  T
C1416      N1421   1.158       .  T
C1417      N1419   1.153       .  T
C1418      N1420   1.158       .  T
C1423      C1424   1.430       .  A
C1423      C1428   1.437       .  A
C1424      C1425   1.455       .  A
C1424      C1429   1.443       .  S
C1425      C1426   1.435       .  A
C1425      C1432   1.433       .  S
C1426      C1427   1.416       .  A
C1427      C1428   1.456       .  A
C1427      C1430   1.430       .  S
C1428      C1431   1.441       .  S
C1429      N1436   1.156       .  T
C1430      N1435   1.155       .  T
C1431      N1433   1.156       .  T
C1432      N1434   1.150       .  T
C1437      C1438   1.418       .  A
C1437      C1442   1.436       .  A
C1438      C1439   1.434       .  A
C1438      C1443   1.445       .  S
C1439      C1440   1.453       .  A
C1439      C1446   1.456       .  S
C1440      C1441   1.422       .  A
C1441      C1442   1.447       .  A
C1441      C1444   1.441       .  S
C1442      C1445   1.442       .  S
C1443      N1450   1.156       .  T
C1444      N1449   1.155       .  T
C1445      N1447   1.157       .  T
C1446      N1448   1.157       .  T
C1451      C1452   1.430       .  A
C1451      C1456   1.439       .  A
C1452      C1453   1.444       .  A
C1452      C1457   1.447       .  S
C1453      C1454   1.417       .  A
C1453      C1460   1.445       .  S
C1454      C1455   1.440       .  A
C1455      C1456   1.464       .  A
C1455      C1458   1.445       .  S
C1456      C1459   1.441       .  S
C1457      N1464   1.157       .  T
C1458      N1463   1.157       .  T
C1459      N1461   1.155       .  T
C1460      N1462   1.158   1_655  T
C1465      C1466   1.454       .  A
C1465      C1470   1.405       .  A
C1466      C1467   1.436       .  A
C1466      C1471   1.441       .  S
C1467      C1468   1.407       .  A
C1467      C1474   1.454       .  S
C1468      C1469   1.422       .  A
C1469      C1470   1.432       .  A
C1469      C1472   1.441       .  S
C1470      C1473   1.429       .  S
C1471      N1478   1.156       .  T
C1472      N1477   1.157       .  T
C1473      N1475   1.151       .  T
C1474      N1476   1.158   1_655  T
C1479      C1480   1.455       .  A
C1479      C1484   1.428       .  A
C1480      C1481   1.453       .  A
C1480      C1485   1.436       .  S
C1481      C1482   1.410       .  A
C1481      C1488   1.454       .  S
C1482      C1483   1.425       .  A
C1483      C1484   1.449       .  A
C1483      C1486   1.444       .  S
C1484      C1487   1.439       .  S
C1485      N1492   1.155       .  T
C1486      N1491   1.157       .  T
C1487      N1489   1.154       .  T
C1488      N1490   1.156       .  T
C1493      C1494   1.425       .  A
C1493      C1498   1.423       .  A
C1494      C1495   1.446       .  A
C1494      C1499   1.438       .  S
C1495      C1496   1.425       .  A
C1495      C1502   1.442       .  S
C1496      C1497   1.458       .  A
C1497      C1498   1.453       .  A
C1497      C1500   1.436       .  S
C1498      C1501   1.446       .  S
C1499      N1506   1.157       .  T
C1500      N1505   1.155       .  T
C1501      N1503   1.157       .  T
C1502      N1504   1.156       .  T
C1507      C1508   1.438       .  A
C1507      C1512   1.413       .  A
C1508      C1509   1.461       .  A
C1508      C1513   1.444       .  S
C1509      C1510   1.448       .  A
C1509      C1516   1.448       .  S
C1510      C1511   1.474       .  A
C1511      C1512   1.448       .  A
C1511      C1514   1.441       .  S
C1512      C1515   1.452       .  S
C1513      N1520   1.157       .  T
C1514      N1519   1.157       .  T
C1515      N1517   1.157       .  T
C1516      N1518   1.157       .  T
C1521      C1522   1.433       .  A
C1521      C1526   1.412       .  A
C1522      C1523   1.468       .  A
C1522      C1527   1.447   1_545  S
C1523      C1524   1.462       .  A
C1523      C1530   1.445       .  S
C1524      C1525   1.417       .  A
C1525      C1526   1.444       .  A
C1525      C1528   1.425       .  S
C1526      C1529   1.436       .  S
C1527      N1534   1.158       .  T
C1528      N1533   1.153       .  T
C1529      N1531   1.157       .  T
C1530      N1532   1.158       .  T
C1535      C1536   1.460       .  A
C1535      C1540   1.468       .  A
C1536      C1537   1.461       .  A
C1536      C1541   1.434       .  S
C1537      C1538   1.420       .  A
C1537      C1544   1.445       .  S
C1538      C1539   1.419       .  A
C1539      C1540   1.466       .  A
C1539      C1542   1.447       .  S
C1540      C1543   1.439       .  S
C1541      N1548   1.156       .  T
C1542      N1547   1.156       .  T
C1543      N1545   1.157       .  T
C1544      N1546   1.157       .  T
C1549      C1550   1.411       .  A
C1549      C1554   1.430       .  A
C1550      C1551   1.448       .  A
C1550      C1555   1.451       .  S
C1551      C1552   1.470       .  A
C1551      C1558   1.447       .  S
C1552      C1553   1.449       .  A
C1553      C1554   1.463       .  A
C1553      C1556   1.436       .  S
C1554      C1557   1.448       .  S
C1555      N1562   1.155       .  T
C1556      N1561   1.154       .  T
C1557      N1559   1.157       .  T
C1558      N1560   1.158       .  T
C1563      C1564   1.428       .  A
C1563      C1568   1.438       .  A
C1564      C1565   1.459       .  A
C1564      C1569   1.443       .  S
C1565      C1566   1.441       .  A
C1565      C1572   1.438       .  S
C1566      C1567   1.420       .  A
C1567      C1568   1.442       .  A
C1567      C1570   1.451       .  S
C1568      C1571   1.422   1_554  S
C1569      N1576   1.156       .  T
C1570      N1575   1.156       .  T
C1571      N1573   1.148       .  T
C1572      N1574   1.154       .  T
C1577      C1578   1.420       .  A
C1577      C1582   1.440       .  A
C1578      C1579   1.449       .  A
C1578      C1583   1.449       .  S
C1579      C1580   1.428       .  A
C1579      C1586   1.437       .  S
C1580      C1581   1.422       .  A
C1581      C1582   1.438       .  A
C1581      C1584   1.446       .  S
C1582      C1585   1.449       .  S
C1583      N1590   1.157       .  T
C1584      N1589   1.157   1_554  T
C1585      N1587   1.156       .  T
C1586      N1588   1.158       .  T
C1591      C1592   1.410       .  A
C1591      C1596   1.431       .  A
C1592      C1593   1.428       .  A
C1592      C1597   1.454       .  S
C1593      C1594   1.446       .  A
C1593      C1600   1.441       .  S
C1594      C1595   1.414       .  A
C1595      C1596   1.444       .  A
C1595      C1598   1.435       .  S
C1596      C1599   1.440       .  S
C1597      N1604   1.157       .  T
C1598      N1603   1.156       .  T
C1599      N1601   1.157       .  T
C1600      N1602   1.155       .  T
C1605      C1606   1.454       .  A
C1605      C1610   1.484       .  A
C1606      C1607   1.457       .  A
C1606      C1611   1.449       .  S
C1607      C1608   1.423       .  A
C1607      C1614   1.444       .  S
C1608      C1609   1.420       .  A
C1609      C1610   1.457       .  A
C1609      C1612   1.452       .  S
C1610      C1613   1.448       .  S
C1611      N1618   1.158       .  T
C1612      N1617   1.157       .  T
C1613      N1615   1.157       .  T
C1614      N1616   1.157       .  T
C1619      C1620   1.421       .  A
C1619      C1624   1.445       .  A
C1620      C1621   1.452       .  A
C1620      C1625   1.436       .  S
C1621      C1622   1.415       .  A
C1621      C1628   1.431       .  S
C1622      C1623   1.445       .  A
C1623      C1624   1.460       .  A
C1623      C1626   1.446       .  S
C1624      C1627   1.438       .  S
C1625      N1632   1.158       .  T
C1626      N1631   1.155       .  T
C1627      N1629   1.158       .  T
C1628      N1630   1.154       .  T
C1633      C1634   1.421       .  A
C1633      C1638   1.482       .  A
C1634      C1635   1.448       .  A
C1634      C1639   1.427       .  S
C1635      C1636   1.414       .  A
C1635      C1642   1.440       .  S
C1636      C1637   1.409       .  A
C1637      C1638   1.458       .  A
C1637      C1640   1.452       .  S
C1638      C1641   1.428       .  S
C1639      N1646   1.151       .  T
C1640      N1645   1.157       .  T
C1641      N1643   1.153       .  T
C1642      N1644   1.157       .  T
C1647      C1648   1.473       .  A
C1647      C1652   1.431       .  A
C1648      C1649   1.385       .  A
C1648      C1653   1.445       .  S
C1649      C1650   1.387       .  A
C1649      C1656   1.443       .  S
C1650      C1651   1.471       .  A
C1651      C1652   1.487       .  A
C1651      C1654   1.439       .  S
C1652      C1655   1.436       .  S
C1653      N1660   1.158       .  T
C1654      N1659   1.157       .  T
C1655      N1657   1.155       .  T
C1656      N1658   1.156       .  T
C1661      C1662   1.476       .  A
C1661      C1666   1.408       .  A
C1662      C1663   1.434       .  A
C1662      C1667   1.455       .  S
C1663      C1664   1.421       .  A
C1663      C1670   1.427       .  S
C1664      C1665   1.466       .  A
C1665      C1666   1.450       .  A
C1665      C1668   1.437       .  S
C1666      C1669   1.437       .  S
C1667      N1674   1.158       .  T
C1668      N1673   1.157       .  T
C1669      N1671   1.154       .  T
C1670      N1672   1.151       .  T
C1675      C1676   1.444       .  A
C1675      C1680   1.467       .  A
C1676      C1677   1.442       .  A
C1676      C1681   1.434       .  S
C1677      C1678   1.423       .  A
C1677      C1684   1.440       .  S
C1678      C1679   1.436       .  A
C1679      C1680   1.479       .  A
C1679      C1682   1.446       .  S
C1680      C1683   1.440       .  S
C1681      N1688   1.151       .  T
C1682      N1687   1.156       .  T
C1683      N1685   1.155       .  T
C1684      N1686   1.156       .  T
C1689      C1690   1.436       .  A
C1689      C1694   1.459       .  A
C1690      C1691   1.450       .  A
C1690      C1695   1.440       .  S
C1691      C1692   1.422       .  A
C1691      C1698   1.447       .  S
C1692      C1693   1.403       .  A
C1693      C1694   1.431       .  A
C1693      C1696   1.464       .  S
C1694      C1697   1.437       .  S
C1695      N1702   1.156       .  T
C1696      N1701   1.157       .  T
C1697      N1699   1.154       .  T
C1698      N1700   1.157       .  T
C1703      C1704   1.450       .  A
C1703      C1708   1.432       .  A
C1704      C1705   1.451       .  A
C1704      C1709   1.444       .  S
C1705      C1706   1.422       .  A
C1705      C1712   1.448       .  S
C1706      C1707   1.431       .  A
C1707      C1708   1.453       .  A
C1707      C1710   1.447       .  S
C1708      C1711   1.442       .  S
C1709      N1716   1.156       .  T
C1710      N1715   1.157       .  T
C1711      N1713   1.156       .  T
C1712      N1714   1.156       .  T
C1717      C1718   1.437       .  A
C1717      C1722   1.468       .  A
C1718      C1719   1.462       .  A
C1718      C1723   1.436       .  S
C1719      C1720   1.455       .  A
C1719      C1726   1.441       .  S
C1720      C1721   1.418       .  A
C1721      C1722   1.435       .  A
C1721      C1724   1.450       .  S
C1722      C1725   1.441       .  S
C1723      N1730   1.153       .  T
C1724      N1729   1.157       .  T
C1725      N1727   1.157       .  T
C1726      N1728   1.158       .  T
C1731      C1732   1.473       .  A
C1731      C1736   1.489       .  A
C1732      C1733   1.422       .  A
C1732      C1737   1.443       .  S
C1733      C1734   1.428       .  A
C1733      C1740   1.452       .  S
C1734      C1735   1.423       .  A
C1735      C1736   1.480       .  A
C1735      C1738   1.451       .  S
C1736      C1739   1.436       .  S
C1737      N1744   1.157       .  T
C1738      N1743   1.156       .  T
C1739      N1741   1.156       .  T
C1740      N1742   1.157       .  T
C1745      C1746   1.430       .  A
C1745      C1750   1.406       .  A
C1746      C1747   1.446       .  A
C1746      C1751   1.451       .  S
C1747      C1748   1.437       .  A
C1747      C1754   1.438       .  S
C1748      C1749   1.456       .  A
C1749      C1750   1.422       .  A
C1749      C1752   1.453       .  S
C1750      C1753   1.445       .  S
C1751      N1758   1.157       .  T
C1752      N1757   1.155       .  T
C1753      N1755   1.155       .  T
C1754      N1756   1.155       .  T
C1759      C1760   1.426       .  A
C1759      C1764   1.432       .  A
C1760      C1761   1.464       .  A
C1760      C1765   1.443       .  S
C1761      C1762   1.445       .  A
C1761      C1768   1.443       .  S
C1762      C1763   1.390       .  A
C1763      C1764   1.406       .  A
C1763      C1766   1.421       .  S
C1764      C1767   1.446       .  S
C1765      N1772   1.156       .  T
C1766      N1771   1.154       .  T
C1767      N1769   1.158       .  T
C1768      N1770   1.157       .  T
C1773      C1774   1.422       .  A
C1773      C1778   1.440       .  A
C1774      C1775   1.427       .  A
C1774      C1779   1.446       .  S
C1775      C1776   1.466       .  A
C1775      C1782   1.442       .  S
C1776      C1777   1.455       .  A
C1777      C1778   1.470       .  A
C1777      C1780   1.443       .  S
C1778      C1781   1.444       .  S
C1779      N1786   1.156       .  T
C1780      N1785   1.157       .  T
C1781      N1783   1.157       .  T
C1782      N1784   1.154       .  T
C1787      C1788   1.401       .  A
C1787      C1792   1.454       .  A
C1788      C1789   1.438       .  A
C1788      C1793   1.439       .  S
C1789      C1790   1.432       .  A
C1789      C1796   1.453       .  S
C1790      C1791   1.429       .  A
C1791      C1792   1.452       .  A
C1791      C1794   1.444       .  S
C1792      C1795   1.452       .  S
C1793      N1800   1.158       .  T
C1794      N1799   1.156       .  T
C1795      N1797   1.156       .  T
C1796      N1798   1.157       .  T
C1801      C1802   1.435       .  A
C1801      C1806   1.431       .  A
C1802      C1803   1.410       .  A
C1802      C1807   1.453       .  S
C1803      C1804   1.441       .  A
C1803      C1810   1.434       .  S
C1804      C1805   1.437       .  A
C1805      C1806   1.450       .  A
C1805      C1808   1.441       .  S
C1806      C1809   1.440       .  S
C1807      N1814   1.159       .  T
C1808      N1813   1.157       .  T
C1809      N1811   1.155       .  T
C1810      N1812   1.154       .  T
C1815      C1816   1.467       .  A
C1815      C1820   1.448       .  A
C1816      C1817   1.456       .  A
C1816      C1821   1.443       .  S
C1817      C1818   1.415       .  A
C1817      C1824   1.453       .  S
C1818      C1819   1.424       .  A
C1819      C1820   1.445       .  A
C1819      C1822   1.450       .  S
C1820      C1823   1.456       .  S
C1821      N1828   1.157       .  T
C1822      N1827   1.157       .  T
C1823      N1825   1.158       .  T
C1824      N1826   1.157       .  T
C1829      C1830   1.418       .  A
C1829      C1834   1.434       .  A
C1830      C1831   1.447       .  A
C1830      C1835   1.450       .  S
C1831      C1832   1.431       .  A
C1831      C1838   1.442       .  S
C1832      C1833   1.440       .  A
C1833      C1834   1.466       .  A
C1833      C1836   1.442       .  S
C1834      C1837   1.444       .  S
C1835      N1842   1.157       .  T
C1836      N1841   1.156       .  T
C1837      N1839   1.156       .  T
C1838      N1840   1.157       .  T
C1843      C1844   1.431       .  A
C1843      C1848   1.459       .  A
C1844      C1845   1.460       .  A
C1844      C1849   1.445       .  S
C1845      C1846   1.444       .  A
C1845      C1852   1.441       .  S
C1846      C1847   1.406       .  A
C1847      C1848   1.419       .  A
C1847      C1850   1.443       .  S
C1848      C1851   1.441       .  S
C1849      N1856   1.156       .  T
C1850      N1855   1.156       .  T
C1851      N1853   1.154       .  T
C1852      N1854   1.157       .  T
C1857      C1858   1.435       .  A
C1857      C1862   1.411       .  A
C1858      C1859   1.456       .  A
C1858      C1863   1.441       .  S
C1859      C1860   1.424       .  A
C1859      C1866   1.432       .  S
C1860      C1861   1.469       .  A
C1861      C1862   1.445       .  A
C1861      C1864   1.445       .  S
C1862      C1865   1.451       .  S
C1863      N1870   1.156       .  T
C1864      N1869   1.157       .  T
C1865      N1867   1.158       .  T
C1866      N1868   1.152       .  T
C1871      C1872   1.463       .  A
C1871      C1876   1.437       .  A
C1872      C1873   1.459       .  A
C1872      C1877   1.439       .  S
C1873      C1874   1.416       .  A
C1873      C1880   1.454       .  S
C1874      C1875   1.425       .  A
C1875      C1876   1.450       .  A
C1875      C1878   1.446       .  S
C1876      C1879   1.444       .  S
C1877      N1884   1.157       .  T
C1878      N1883   1.157       .  T
C1879      N1881   1.157       .  T
C1880      N1882   1.156       .  T
C1885      C1886   1.453       .  A
C1885      C1890   1.429       .  A
C1886      C1887   1.416       .  A
C1886      C1891   1.443       .  S
C1887      C1888   1.408       .  A
C1887      C1894   1.433       .  S
C1888      C1889   1.446       .  A
C1889      C1890   1.460       .  A
C1889      C1892   1.443       .  S
C1890      C1893   1.431       .  S
C1891      N1898   1.158       .  T
C1892      N1897   1.157       .  T
C1893      N1895   1.153       .  T
C1894      N1896   1.153       .  T
C1899      C1900   1.412       .  A
C1899      C1904   1.401       .  A
C1900      C1901   1.394       .  A
C1900      C1905   1.457       .  S
C1901      C1902   1.397       .  A
C1901      C1908   1.431       .  S
C1902      C1903   1.415       .  A
C1903      C1904   1.394       .  A
C1903      C1906   1.429       .  S
C1904      C1907   1.449       .  S
C1905      N1912   1.158       .  T
C1906      N1911   1.149       .  T
C1907      N1909   1.155       .  T
C1908      N1910   1.152       .  T
C1913      C1914   1.376       .  A
C1913      C1918   1.488       .  A
C1914      C1915   1.359       .  A
C1914      C1919   1.401       .  S
C1915      C1916   1.392       .  A
C1915      C1922   1.432       .  S
C1916      C1917   1.374       .  A
C1917      C1918   1.403       .  A
C1917      C1920   1.449       .  S
C1918      C1921   1.452       .  S
C1919      N1926   1.145       .  T
C1920      N1925   1.157       .  T
C1921      N1923   1.157       .  T
C1922      N1924   1.154       .  T
C1927      C1928   1.438       .  A
C1927      C1932   1.425       .  A
C1928      C1929   1.401       .  A
C1928      C1933   1.461       .  S
C1929      C1930   1.426       .  A
C1929      C1936   1.446       .  S
C1930      C1931   1.394       .  A
C1931      C1932   1.367       .  A
C1931      C1934   1.443       .  S
C1932      C1935   1.455       .  S
C1933      N1940   1.157       .  T
C1934      N1939   1.157       .  T
C1935      N1937   1.157       .  T
C1936      N1938   1.157       .  T
C1941      C1942   1.358       .  A
C1941      C1946   1.412       .  A
C1942      C1943   1.398       .  A
C1942      C1947   1.460       .  S
C1943      C1944   1.471       .  A
C1943      C1950   1.424       .  S
C1944      C1945   1.412       .  A
C1945      C1946   1.402       .  A
C1945      C1948   1.432       .  S
C1946      C1949   1.431       .  S
C1947      N1954   1.157       .  T
C1948      N1953   1.154       .  T
C1949      N1951   1.150       .  T
C1950      N1952   1.148       .  T
C1955      C1956   1.389       .  A
C1955      C1960   1.438       .  A
C1956      C1957   1.366       .  A
C1956      C1961   1.451       .  S
C1957      C1958   1.444       .  A
C1957      C1964   1.450       .  S
C1958      C1959   1.393       .  A
C1959      C1960   1.386       .  A
C1959      C1962   1.452       .  S
C1960      C1963   1.457       .  S
C1961      N1968   1.156       .  T
C1962      N1967   1.156       .  T
C1963      N1965   1.156       .  T
C1964      N1966   1.154       .  T
C1969      C1970   1.433       .  A
C1969      C1974   1.404       .  A
C1970      C1971   1.391       .  A
C1970      C1975   1.465       .  S
C1971      C1972   1.408       .  A
C1971      C1978   1.452       .  S
C1972      C1973   1.411       .  A
C1973      C1974   1.396       .  A
C1973      C1976   1.442       .  S
C1974      C1977   1.439       .  S
C1975      N1982   1.159       .  T
C1976      N1981   1.153       .  T
C1977      N1979   1.154       .  T
C1978      N1980   1.157       .  T
C1983      C1984   1.421       .  A
C1983      C1988   1.482       .  A
C1984      C1985   1.421       .  A
C1984      C1989   1.437       .  S
C1985      C1986   1.406       .  A
C1985      C1992   1.435       .  S
C1986      C1987   1.372       .  A
C1987      C1988   1.403       .  A
C1987      C1990   1.459       .  S
C1988      C1991   1.453       .  S
C1989      N1996   1.155       .  T
C1990      N1995   1.157       .  T
C1991      N1993   1.156       .  T
C1992      N1994   1.154       .  T
C1997      C1998   1.418       .  A
C1997      C2002   1.438       .  A
C1998      C1999   1.450       .  A
C1998      C2003   1.450       .  S
C1999      C2000   1.454       .  A
C1999      C2006   1.438       .  S
C2000      C2001   1.436       .  A
C2001      C2002   1.466       .  A
C2001      C2004   1.440       .  S
C2002      C2005   1.443       .  S
C2003      N2010   1.158       .  T
C2004      N2009   1.155       .  T
C2005      N2007   1.156       .  T
C2006      N2008   1.153       .  T
C2011      C2012   1.422       .  A
C2011      C2016   1.451       .  A
C2012      C2013   1.446       .  A
C2012      C2017   1.431       .  S
C2013      C2014   1.425       .  A
C2013      C2020   1.444       .  S
C2014      C2015   1.414       .  A
C2015      C2016   1.443       .  A
C2015      C2018   1.452       .  S
C2016      C2019   1.436       .  S
C2017      N2024   1.151       .  T
C2018      N2023   1.158       .  T
C2019      N2021   1.154       .  T
C2020      N2022   1.156       .  T
C2025      C2026   1.422       .  A
C2025      C2030   1.410       .  A
C2026      C2027   1.453       .  A
C2026      C2031   1.445       .  S
C2027      C2028   1.442       .  A
C2027      C2034   1.443       .  S
C2028      C2029   1.460       .  A
C2029      C2030   1.444       .  A
C2029      C2032   1.450       .  S
C2030      C2033   1.452       .  S
C2031      N2038   1.157       .  T
C2032      N2037   1.158       .  T
C2033      N2035   1.156       .  T
C2034      N2036   1.156       .  T
C2039      C2040   1.417       .  A
C2039      C2044   1.412       .  A
C2040      C2041   1.403       .  A
C2040      C2045   1.443       .  S
C2041      C2042   1.429       .  A
C2041      C2048   1.459       .  S
C2042      C2043   1.399       .  A
C2043      C2044   1.399       .  A
C2043      C2046   1.451       .  S
C2044      C2047   1.446       .  S
C2045      N2052   1.156       .  T
C2046      N2051   1.156       .  T
C2047      N2049   1.155       .  T
C2048      N2050   1.157       .  T
