geometry optimzed in LAMMPS
_audit_creation_date              2020-12-01 
_audit_creation_method            'lammps2cif' 
_symmetry_space_group_name_H-M    'P1' 
_symmetry_Int_Tables_number       1 
_symmetry_cell_setting            triclinic 
loop_ 
_symmetry_equiv_pos_as_xyz 
  x,y,z 
_cell_length_a                    44.19300246 
_cell_length_b                    44.25341231443074 
_cell_length_c                    40.72817169160874 
_cell_angle_alpha                 90.61049756008376 
_cell_angle_beta                  90.59965753966266 
_cell_angle_gamma                 119.99285765275756 
loop_ 
_atom_site_label 
_atom_site_type_symbol 
_atom_site_fract_x 
_atom_site_fract_y 
_atom_site_fract_z 
_atom_site_charge 
C1          C  0.48460170  0.71003424  0.10441764     0.81200
N2          N  0.48593763  0.70956596  0.13762665    -0.77100
C3          C  0.48926127  0.73697250  0.15577536     0.83700
N4          N  0.49129997  0.76511869  0.14036078    -0.77000
C5          C  0.49005550  0.76559211  0.10698281     0.83800
N6          N  0.48667090  0.73801260  0.08909888    -0.78700
C7          C  0.49299279  0.72868315  0.29630843     0.81200
N8          N  0.49309613  0.73050784  0.26300923    -0.77100
C9          C  0.49156349  0.75720225  0.24819944     0.83700
N10         N  0.48985316  0.78181890  0.26693060    -0.77000
C11         C  0.48964168  0.77990537  0.30012216     0.83800
N12         N  0.49119490  0.75337062  0.31480270    -0.78700
C13         C  0.21508519  0.77492296  0.28418690     0.81200
N14         N  0.21222842  0.77191605  0.25090607    -0.77100
C15         C  0.18407905  0.74404428  0.23632817     0.83700
N16         N  0.15901962  0.71933105  0.25526948    -0.77000
C17         C  0.16188973  0.72235059  0.28846771     0.83800
N18         N  0.18993014  0.75008835  0.30290659    -0.78700
C19         C  0.22628790  0.77593035  0.09182285     0.81200
N20         N  0.19863876  0.74773038  0.07747408    -0.77100
C21         C  0.17247078  0.72409904  0.09619613     0.83700
N22         N  0.17404319  0.72863398  0.12933317    -0.77000
C23         C  0.20179387  0.75694565  0.14380381     0.83800
N24         N  0.22786259  0.78048833  0.12489275    -0.78700
C25         C  0.15829139  0.44249692  0.09746615     0.81200
N26         N  0.15530916  0.44310150  0.13053814    -0.77100
C27         C  0.17937186  0.44183083  0.15058466     0.83700
N28         N  0.20653903  0.43997586  0.13725446    -0.77000
C29         C  0.20938985  0.43924377  0.10413163     0.83800
N30         N  0.18534434  0.44065221  0.08429017    -0.78700
C31         C  0.16992690  0.45464626  0.29010260     0.81200
N32         N  0.19709199  0.45924487  0.30946540    -0.77100
C33         C  0.22510776  0.45954445  0.29593003     0.83700
N34         N  0.22601235  0.45521782  0.26303157    -0.77000
C35         C  0.19893430  0.45062438  0.24347060     0.83800
N36         N  0.17082016  0.45039014  0.25711580    -0.78700
C37         C  0.74201464  0.24172502  0.28944813     0.81200
N38         N  0.74205042  0.23775215  0.25639127    -0.77100
C39         C  0.71595837  0.20886876  0.24105033     0.83700
N40         N  0.68982310  0.18401256  0.25911885    -0.77000
C41         C  0.68984959  0.18802324  0.29224008     0.83800
N42         N  0.71594137  0.21689318  0.30735368    -0.78700
C43         C  0.76212396  0.24686566  0.09770110     0.81200
N44         N  0.73528463  0.21844173  0.08270786    -0.77100
C45         C  0.71007451  0.19297859  0.10086680     0.83700
N46         N  0.71158925  0.19598634  0.13409808    -0.77000
C47         C  0.73839873  0.22440945  0.14935633     0.83800
N48         N  0.76364048  0.24989845  0.13100959    -0.78700
C49         C  0.69789511  0.50965212  0.10040626     0.81200
N50         N  0.70262330  0.51278559  0.13355596    -0.77100
C51         C  0.73197591  0.51529073  0.14747589     0.83700
N52         N  0.75635057  0.51457409  0.12801891    -0.77000
C53         C  0.75160223  0.51143526  0.09496415     0.83800
N54         N  0.72238906  0.50894363  0.08115779    -0.78700
C55         C  0.69835005  0.52017622  0.29302639     0.81200
N56         N  0.72693747  0.52135247  0.30688937    -0.77100
C57         C  0.75205196  0.52191736  0.28762907     0.83700
N58         N  0.74845684  0.52112352  0.25440016    -0.77000
C59         C  0.71973399  0.51994309  0.24041824     0.83800
N60         N  0.69475869  0.51942436  0.25989298    -0.78700
C61         C  0.42401573  0.19702707  0.29561243     0.81200
N62         N  0.42540272  0.22398307  0.31301521    -0.77100
C63         C  0.42445386  0.25029651  0.29719162     0.83700
N64         N  0.42218266  0.24966495  0.26388338    -0.77000
C65         C  0.42075732  0.22266200  0.24632174     0.83800
N66         N  0.42171735  0.19635353  0.26235320    -0.78700
C67         C  0.42179497  0.17453418  0.10394866     0.81200
N68         N  0.42203016  0.20154816  0.08829007    -0.77100
C69         C  0.42034721  0.22689004  0.10579783     0.83700
N70         N  0.41870265  0.22538451  0.13901398    -0.77000
C71         C  0.41848830  0.19840744  0.15489715     0.83800
N72         N  0.42010865  0.17301899  0.13722540    -0.78700
N73         N  0.48151363  0.54852451  0.39133060    -0.05100
N74         N  0.47417446  0.56571604  0.36933938    -0.57200
N75         N  0.54122532  0.52752484  0.41424292    -0.04800
N76         N  0.57317399  0.53388425  0.40826934    -0.59400
N77         N  0.51907487  0.50612133  0.39172102    -0.04400
N78         N  0.53545056  0.49746036  0.36991746    -0.57200
N79         N  0.50360144  0.57008831  0.41379796    -0.04100
N80         N  0.51182249  0.60254688  0.40748602    -0.59700
C81         C  0.49308652  0.59922316  0.37982932     0.97100
C82         C  0.56899077  0.51476784  0.38076768     0.96800
N83         N  0.50496367  0.48369342  0.01429041    -0.05300
N84         N  0.52390334  0.47772843  0.03572760    -0.57800
N85         N  0.50542776  0.57201653  0.49159580    -0.03400
N86         N  0.51324716  0.60472332  0.49640780    -0.59100
N87         N  0.46315688  0.52201097  0.01395517    -0.05300
N88         N  0.45581270  0.54008324  0.03516804    -0.58100
N89         N  0.54310394  0.52936664  0.49177052    -0.03100
N90         N  0.57513922  0.53514222  0.49704411    -0.59100
Mn91       Mn  0.52432074  0.55071772  0.45291499     1.18400
C92         C  0.55651629  0.49554834  0.02377515     0.99100
C93         C  0.47201576  0.57254330  0.02284920     0.99800
N94         N  0.44624943  0.43647575  0.39259034    -0.05300
N95         N  0.45256743  0.41775202  0.37123294    -0.61700
N96         N  0.38810643  0.45970349  0.41573893    -0.04100
N97         N  0.35629060  0.45458519  0.41088746    -0.62300
N98         N  0.40907303  0.47944978  0.39266578    -0.04900
N99         N  0.39203348  0.48824971  0.37161723    -0.61900
N100        N  0.42514168  0.41644687  0.41545398    -0.03700
N101        N  0.41664709  0.38359712  0.41013138    -0.62600
Mn102      Mn  0.46393177  0.49251931  0.39117346     1.08600
C103        C  0.43411627  0.38499491  0.38261792     1.00400
C104        C  0.35936009  0.47274369  0.38348690     1.00400
N105        N  0.39314362  0.45010521  0.01649212    -0.04900
N106        N  0.37635922  0.45856670  0.03800654    -0.60200
N107        N  0.42693473  0.41842756  0.49282919    -0.04200
N108        N  0.41784323  0.38568982  0.49849869    -0.57000
N109        N  0.43477261  0.41150896  0.01642398    -0.05500
N110        N  0.44413058  0.39540349  0.03789835    -0.59800
N111        N  0.38965936  0.46103104  0.49325671    -0.04500
N112        N  0.35754503  0.45376591  0.49988106    -0.57000
Mn113      Mn  0.44906140  0.46685298  0.01626801     1.20200
Mn114      Mn  0.40655731  0.43807776  0.45425060     1.10100
Cl115      Cl  0.46548635  0.49428795  0.45367294    -0.85000
C116        C  0.34275074  0.43999484  0.02755280     0.97400
C117        C  0.42668105  0.36181419  0.02727340     0.97200
N118        N  0.99989549  0.53868820  0.00287814    -0.05100
N119        N  0.02478980  0.55494540  0.02542025    -0.57200
N120        N  0.91727774  0.51692024  0.48062474    -0.04800
N121        N  0.89272210  0.52473483  0.48703256    -0.59400
N122        N  0.91962093  0.49932177  0.00034122    -0.04400
N123        N  0.89360118  0.49022858  0.02078126    -0.57200
N124        N  0.99741191  0.55671890  0.48335552    -0.04100
N125        N  0.02136601  0.58894532  0.49183502    -0.59700
C126        C  0.04074055  0.58859041  0.01617958     0.97100
C127        C  0.87829689  0.50827678  0.01018827     0.96800
N128        N  0.91877072  0.50045597  0.37912769    -0.05300
N129        N  0.89494691  0.49508866  0.35645230    -0.57800
N130        N  0.99864824  0.55982993  0.40546947    -0.03400
N131        N  0.02339448  0.59247533  0.40110965    -0.59100
N132        N  0.99866344  0.53956529  0.38155255    -0.05300
N133        N  0.02340200  0.55796749  0.36044426    -0.58100
N134        N  0.91860636  0.52067919  0.40297901    -0.03100
N135        N  0.89462681  0.52951923  0.39700453    -0.59100
Mn136      Mn  0.95802230  0.53939955  0.44315796     1.18400
C137        C  0.88004997  0.51315728  0.36807895     0.99100
C138        C  0.03864950  0.59071820  0.37314161     0.99800
N139        N  0.91886046  0.42788674  0.99672503    -0.05300
N140        N  0.89460638  0.40967233  0.01829957    -0.61700
N141        N  0.99697159  0.44315854  0.47649104    -0.04100
N142        N  0.02279944  0.43665270  0.48089322    -0.62300
N143        N  0.99903119  0.46722439  0.99816045    -0.04900
N144        N  0.02433412  0.47407270  0.01961002    -0.61900
N145        N  0.91661785  0.40316350  0.47475647    -0.03700
N146        N  0.89143400  0.37061296  0.47877002    -0.62600
Mn147      Mn  0.95934488  0.48325167  0.00046372     1.10700
C148        C  0.87914889  0.37677108  0.00599822     1.00400
C149        C  0.03972959  0.45687611  0.00701496     1.00400
N150        N  0.99783792  0.46779050  0.37758133    -0.04900
N151        N  0.02296239  0.47579440  0.35628820    -0.60200
N152        N  0.91714184  0.40666100  0.39777717    -0.04200
N153        N  0.89067111  0.37497007  0.39183949    -0.57000
N154        N  0.91747934  0.42865254  0.37607772    -0.05500
N155        N  0.89121300  0.41238666  0.35485395    -0.59800
N156        N  0.99741113  0.44570911  0.39921575    -0.04500
N157        N  0.02224863  0.43820496  0.39311626    -0.57000
Mn158      Mn  0.95823319  0.48410311  0.37764157     1.20200
Mn159      Mn  0.95706158  0.42373261  0.43699687     1.10100
Cl160      Cl  0.95756344  0.48159482  0.44005600    -0.85000
C161        C  0.03795421  0.45729987  0.36644266     0.97400
C162        C  0.87483238  0.37909607  0.36515322     0.97200
N163        N  0.48473461  0.93644133  0.00907229    -0.05100
N164        N  0.47588342  0.91137782  0.03055382    -0.57200
N165        N  0.52480158  0.02858823  0.49024923    -0.04800
N166        N  0.55672679  0.05421811  0.49709888    -0.59400
N167        N  0.52568619  0.01670611  0.01070587    -0.04400
N168        N  0.54237406  0.04239921  0.03240888    -0.57200
N169        N  0.48688250  0.94860094  0.48980911    -0.04100
N170        N  0.49558541  0.92482893  0.49682411    -0.59700
C171        C  0.49365059  0.89546576  0.02085509     0.97100
C172        C  0.57590739  0.05786104  0.02271305     0.96800
N173        N  0.50783212  0.02706793  0.38878286    -0.05300
N174        N  0.52581401  0.05151819  0.36732757    -0.57800
N175        N  0.48935798  0.94774578  0.41259132    -0.03400
N176        N  0.49651832  0.92232679  0.40884483    -0.59100
N177        N  0.46897827  0.94701096  0.38842402    -0.05300
N178        N  0.46181687  0.92107950  0.36767840    -0.58100
N179        N  0.52834808  0.02795608  0.41286781    -0.03100
N180        N  0.56083790  0.05309237  0.40827719    -0.59100
Mn181      Mn  0.50826399  0.98828925  0.45141773     1.18400
C182        C  0.55863944  0.06760514  0.37996064     0.99100
C183        C  0.47903179  0.90597509  0.38088915     0.99800
N184        N  0.45470587  0.01747026  0.00675057    -0.05300
N185        N  0.46046567  0.04158449  0.02924593    -0.61700
N186        N  0.37169637  0.94511573  0.48137221    -0.04100
N187        N  0.33953312  0.91885582  0.48427117    -0.62300
N188        N  0.41408375  0.93729506  0.00407680    -0.04900
N189        N  0.39542433  0.91150298  0.02411397    -0.61900
N190        N  0.40967770  0.02523210  0.48361850    -0.03700
N191        N  0.40072174  0.04923133  0.48903102    -0.62600
Mn192      Mn  0.46978160  0.97700150  0.00860908     1.10700
C193        C  0.44313920  0.05713026  0.01723086     1.00400
C194        C  0.36299906  0.89622205  0.01054582     1.00400
N195        N  0.39731084  0.94569170  0.38297721    -0.04900
N196        N  0.38128946  0.92082177  0.36040921    -0.60200
N197        N  0.41398252  0.02550429  0.40600438    -0.04200
N198        N  0.40734034  0.05092661  0.40019686    -0.57000
N199        N  0.43621046  0.02577652  0.38457609    -0.05500
N200        N  0.44522534  0.05140514  0.36373455    -0.59800
N201        N  0.37479437  0.94521249  0.40414474    -0.04500
N202        N  0.34286713  0.91989331  0.39639685    -0.57000
Mn203      Mn  0.45261785  0.98636516  0.38526463     1.20200
Mn204      Mn  0.39159024  0.98530366  0.44372904     1.10100
Cl205      Cl  0.44990438  0.98671516  0.44766223    -0.85000
C206        C  0.34749412  0.90490441  0.36924229     0.97400
C207        C  0.42711995  0.06679087  0.37393098     0.97200
C208        C  0.42688161  0.33365971  0.04420363    -0.17500
C209        C  0.42577413  0.30945526  0.05852214     0.06600
C210        C  0.42363565  0.28069648  0.07520683     0.08400
C211        C  0.42180283  0.25603550  0.08927191    -0.18300
C212        C  0.43915494  0.08317312  0.03498341    -0.17500
C213        C  0.43479682  0.10399069  0.05059394     0.06600
C214        C  0.42935532  0.12790300  0.06933496     0.08400
C215        C  0.42525690  0.14865656  0.08534298    -0.18300
C216        C  0.41809977  0.19714920  0.19115680    -0.15400
C217        C  0.41896456  0.22272378  0.21007206    -0.30600
H218        H  0.41809516  0.17504179  0.20251166     0.13600
H219        H  0.41910592  0.24488958  0.19869998     0.14200
C220        C  0.42613222  0.27886113  0.31579897    -0.17500
C221        C  0.42770457  0.30263156  0.33193255     0.06600
C222        C  0.42971444  0.33061475  0.35071978     0.08400
C223        C  0.43161339  0.35501109  0.36600623    -0.18300
C224        C  0.42524524  0.16938853  0.31241084    -0.17500
C225        C  0.42625910  0.14626703  0.32675173     0.06600
C226        C  0.42715933  0.11907584  0.34356013     0.08400
C227        C  0.42746284  0.09548781  0.35768820    -0.18300
C228        C  0.67153094  0.51901474  0.31333258    -0.17500
C229        C  0.64845611  0.51773058  0.32978294     0.06600
C230        C  0.62098067  0.51618411  0.34831182     0.08400
C231        C  0.59728669  0.51517071  0.36352067    -0.18300
C232        C  0.78172515  0.52218835  0.30267936    -0.17500
C233        C  0.80529389  0.52135297  0.31703960     0.06600
C234        C  0.83166398  0.51921077  0.33498715     0.08400
C235        C  0.85367520  0.51663707  0.35043092    -0.18300
C236        C  0.66692282  0.50671631  0.08548360    -0.17500
C237        C  0.64143696  0.50403658  0.07158752     0.06600
C238        C  0.61193931  0.50085541  0.05455917     0.08400
C239        C  0.58676413  0.49827779  0.04012637    -0.18300
C240        C  0.73772112  0.51814745  0.18343531    -0.15400
C241        C  0.71461914  0.51839122  0.20441450    -0.30600
H242        H  0.76152557  0.51960910  0.19284668     0.13600
H243        H  0.69080850  0.51691410  0.19500042     0.14200
C244        C  0.77734927  0.51036793  0.07471469    -0.17500
C245        C  0.79945991  0.50942602  0.05847161     0.06600
C246        C  0.82603899  0.50849989  0.04049740     0.08400
C247        C  0.84947170  0.50808498  0.02610964    -0.18300
C248        C  0.68123129  0.16343805  0.08481903    -0.17500
C249        C  0.65691829  0.13914802  0.07085076     0.06600
C250        C  0.62849807  0.11100767  0.05411295     0.08400
C251        C  0.60438742  0.08691633  0.03972141    -0.18300
C252        C  0.78809604  0.27416401  0.07806310    -0.17500
C253        C  0.80875792  0.29676540  0.06055669     0.06600
C254        C  0.83246633  0.32348727  0.03993114     0.08400
C255        C  0.85314619  0.34710700  0.02332650    -0.18300
C256        C  0.66214979  0.16206070  0.31140797    -0.17500
C257        C  0.63912303  0.14090832  0.32816788     0.06600
C258        C  0.61194159  0.11620719  0.34765387     0.08400
C259        C  0.58810992  0.09456385  0.36333412    -0.18300
C260        C  0.71530030  0.20440767  0.20497345    -0.15400
C261        C  0.73990353  0.22836436  0.18554839    -0.30600
H262        H  0.69360639  0.18090175  0.19413085     0.13600
H263        H  0.76158323  0.25189677  0.19637224     0.14200
C264        C  0.76951472  0.27218265  0.30550393    -0.17500
C265        C  0.79280483  0.29750506  0.31918195     0.06600
C266        C  0.82059364  0.32666872  0.33521852     0.08400
C267        C  0.84499768  0.35101418  0.34888350    -0.18300
C268        C  0.25379152  0.46443771  0.31637302    -0.17500
C269        C  0.27798538  0.46806453  0.33314111     0.06600
C270        C  0.30634811  0.47126304  0.35196707     0.08400
C271        C  0.33058653  0.47272247  0.36705815    -0.18300
C272        C  0.06596806  0.45649933  0.34967408    -0.17500
C273        C  0.08923518  0.45572483  0.33520636     0.06600
C274        C  0.11661104  0.45495721  0.31837168     0.08400
C275        C  0.14049623  0.45458911  0.30471988    -0.18300
C276        C  0.17617923  0.44376817  0.18649086    -0.15400
C277        C  0.20097686  0.44657451  0.20768146    -0.30600
H278        H  0.15328321  0.44403075  0.19558928     0.13600
H279        H  0.22409607  0.44679770  0.19852707     0.14200
C280        C  0.23842273  0.43829913  0.08983458    -0.17500
C281        C  0.26248938  0.43831681  0.07619777     0.06600
C282        C  0.29040553  0.43890879  0.05917112     0.08400
C283        C  0.31421313  0.43950609  0.04448121    -0.18300
C284        C  0.06718336  0.45447151  0.02351909    -0.17500
C285        C  0.08894591  0.45173899  0.03909176     0.06600
C286        C  0.11324091  0.44812081  0.05883893     0.08400
C287        C  0.13364333  0.44518747  0.07640848    -0.18300
C288        C  0.14347528  0.69410803  0.08082237    -0.17500
C289        C  0.11972804  0.66932179  0.06680921     0.06600
C290        C  0.09230826  0.64076609  0.04951565     0.08400
C291        C  0.06892447  0.61676805  0.03433692    -0.18300
C292        C  0.33288962  0.86833258  0.02537941    -0.17500
C293        C  0.30770606  0.84612808  0.03909595     0.06600
C294        C  0.27864308  0.82123731  0.05644172     0.08400
C295        C  0.25436469  0.80046274  0.07218297    -0.18300
C296        C  0.13567619  0.69574244  0.30826751    -0.17500
C297        C  0.11373537  0.67272001  0.32441365     0.06600
C298        C  0.08801154  0.64494353  0.34254143     0.08400
C299        C  0.06579305  0.62052599  0.35714437    -0.18300
C300        C  0.20464718  0.76224261  0.17981510    -0.15400
C301        C  0.18049239  0.73959129  0.20024252    -0.30600
H302        H  0.22768203  0.78520001  0.18974722     0.13600
H303        H  0.15750653  0.71658228  0.19030843     0.14200
C304        C  0.31955205  0.87712790  0.35038743    -0.17500
C305        C  0.29636348  0.85429009  0.33393132     0.06600
C306        C  0.26891246  0.82747979  0.31494436     0.08400
C307        C  0.24481242  0.80400607  0.29988608    -0.18300
C308        C  0.49430642  0.70053463  0.31226840    -0.17500
C309        C  0.49493350  0.67759190  0.32747807     0.06600
C310        C  0.49506366  0.65101318  0.34633918     0.08400
C311        C  0.49456856  0.62793365  0.36226598    -0.18300
C312        C  0.48041643  0.87733611  0.36582674    -0.17500
C313        C  0.48226801  0.85407760  0.35221085     0.06600
C314        C  0.48491457  0.82769818  0.33513872     0.08400
C315        C  0.48722040  0.80568971  0.31960268    -0.18300
C316        C  0.47322694  0.60208176  0.03890237    -0.17500
C317        C  0.47511529  0.62697082  0.05309110     0.06600
C318        C  0.47804696  0.65608830  0.07033816     0.08400
C319        C  0.48094065  0.68086144  0.08558536    -0.18300
C320        C  0.49193216  0.79491210  0.09023262    -0.17500
C321        C  0.49294327  0.81823725  0.07429541     0.06600
C322        C  0.49357390  0.84479963  0.05478582     0.08400
C323        C  0.49376595  0.86756987  0.03856755    -0.18300
C324        C  0.49134538  0.75985899  0.21206184    -0.15400
C325        C  0.49039982  0.73520635  0.19192187    -0.30600
H326        H  0.49136438  0.78245171  0.20184639     0.13600
H327        H  0.48987012  0.71239742  0.20221770     0.14200
C328        C  0.49755157  0.73698967  0.60415809     0.81200
N329        N  0.49797867  0.73662483  0.63747876    -0.77100
C330        C  0.49619610  0.76192925  0.65515664     0.83700
N331        N  0.49387172  0.78753244  0.63918537    -0.77000
C332        C  0.49331553  0.78785898  0.60585107     0.83800
N333        N  0.49509328  0.76253824  0.58836168    -0.78700
C334        C  0.48568858  0.70350291  0.79401245     0.81200
N335        N  0.48827582  0.70530354  0.76080462    -0.77100
C336        C  0.49229563  0.73399531  0.74505447     0.83700
N337        N  0.49374239  0.76091763  0.76282810    -0.77000
C338        C  0.49125337  0.75918925  0.79602621     0.83800
N339        N  0.48717652  0.73045855  0.81157623    -0.78700
C340        C  0.22477566  0.77858791  0.78647913     0.81200
N341        N  0.21803296  0.77548445  0.75354676    -0.77100
C342        C  0.18750923  0.74845998  0.74125971     0.83700
N343        N  0.16413335  0.72478132  0.76202490    -0.77000
C344        C  0.17081650  0.72783638  0.79476104     0.83800
N345        N  0.20115016  0.75466085  0.80702229    -0.78700
C346        C  0.21062183  0.77743138  0.59359216     0.81200
N347        N  0.18253459  0.74803421  0.58150276    -0.77100
C348        C  0.15967116  0.72388485  0.60231541     0.83700
N349        N  0.16508867  0.72912512  0.63533764    -0.77000
C350        C  0.19339361  0.75872180  0.64748651     0.83800
N351        N  0.21606722  0.78265300  0.62644497    -0.78700
C352        C  0.16584567  0.45097502  0.59492203     0.81200
N353        N  0.15985437  0.44695583  0.62757486    -0.77100
C354        C  0.18351496  0.44583586  0.64825283     0.83700
N355        N  0.21351551  0.44901033  0.63601679    -0.77000
C356        C  0.21958127  0.45317175  0.60328737     0.83800
N357        N  0.19572379  0.45416056  0.58276716    -0.78700
C358        C  0.16156530  0.44112701  0.78717285     0.81200
N359        N  0.18356896  0.43673166  0.80738241    -0.77100
C360        C  0.20935943  0.43238899  0.79463938     0.83700
N361        N  0.21341682  0.43275645  0.76168461    -0.77000
C362        C  0.19149873  0.43712434  0.74126932     0.83800
N363        N  0.16552028  0.44139826  0.75412593    -0.78700
C364        C  0.75114100  0.24228988  0.78539043     0.81200
N365        N  0.74697834  0.23765454  0.75236514    -0.77100
C366        C  0.72000199  0.20782024  0.73923232     0.83700
N367        N  0.69718907  0.18270910  0.75947038    -0.77000
C368        C  0.70149191  0.18735181  0.79256476     0.83800
N369        N  0.72841651  0.21715963  0.80548545    -0.78700
C370        C  0.75238140  0.24345880  0.59351928     0.81200
N371        N  0.72216021  0.21761523  0.58001835    -0.77100
C372        C  0.69696928  0.19394296  0.59954836     0.83700
N373        N  0.70194096  0.19617403  0.63261824    -0.77000
C374        C  0.73219642  0.22208695  0.64626612     0.83800
N375        N  0.75730246  0.24576357  0.62659019    -0.78700
C376        C  0.70600460  0.52034818  0.60615284     0.81200
N377        N  0.70868950  0.52224319  0.63945428    -0.77100
C378        C  0.73643098  0.52274525  0.65487373     0.83700
N379        N  0.76127586  0.52122674  0.63672971    -0.77000
C380        C  0.75850540  0.51925910  0.60347832     0.83800
N381        N  0.73086670  0.51877537  0.58823678    -0.78700
C382        C  0.69059988  0.51352197  0.79835216     0.81200
N383        N  0.71903398  0.51525813  0.81326547    -0.77100
C384        C  0.74656805  0.51996457  0.79509307     0.83700
N385        N  0.74550971  0.52263657  0.76198527    -0.77000
C386        C  0.71704324  0.52091026  0.74692812     0.83800
N387        N  0.68961612  0.51630233  0.76526304    -0.78700
C388        C  0.42931051  0.17912375  0.79398785     0.81200
N389        N  0.42655269  0.20405191  0.81109756    -0.77100
C390        C  0.41980220  0.22682590  0.79510351     0.83700
N391        N  0.41595890  0.22474691  0.76184039    -0.77000
C392        C  0.41864626  0.19965808  0.74458960     0.83800
N393        N  0.42528342  0.17691256  0.76084960    -0.78700
C394        C  0.40961436  0.19070944  0.60347682     0.81200
N395        N  0.41185046  0.21816457  0.58686961    -0.77100
C396        C  0.41367059  0.24575464  0.60353172     0.83700
N397        N  0.41345003  0.24600016  0.63682196    -0.77000
C398        C  0.41137563  0.21874366  0.65366909     0.83800
N399        N  0.40956611  0.19107430  0.63686322    -0.78700
N400        N  0.45803658  0.51624539  0.89053109    -0.05100
N401        N  0.45009404  0.53247787  0.86792472    -0.57200
N402        N  0.52112771  0.49994989  0.91365728    -0.04800
N403        N  0.55353442  0.50768012  0.90800295    -0.59400
N404        N  0.49954266  0.47750870  0.89141165    -0.04400
N405        N  0.51687088  0.46951275  0.87006404    -0.57200
N406        N  0.47973301  0.53869368  0.91270850    -0.04100
N407        N  0.48702159  0.57068848  0.90563859    -0.59700
C408        C  0.46813160  0.56627950  0.87787213     0.97100
C409        C  0.55035637  0.48833918  0.88098347     0.96800
N410        N  0.52208849  0.50926926  0.51467916    -0.05300
N411        N  0.53933071  0.50097275  0.53599969    -0.57800
N412        N  0.48271880  0.54219585  0.99035603    -0.03400
N413        N  0.48914969  0.57445912  0.99500097    -0.59100
N414        N  0.48461219  0.55202885  0.51467769    -0.05300
N415        N  0.47781349  0.57072306  0.53566409    -0.58100
N416        N  0.52473752  0.50400452  0.99087113    -0.03100
N417        N  0.55760984  0.51228962  0.99586683    -0.59100
Mn418      Mn  0.50290693  0.52212837  0.95188187     1.18400
C419        C  0.57219528  0.51711075  0.52454994     0.99100
C420        C  0.49573875  0.60336702  0.52384949     0.99800
N421        N  0.42880506  0.40550288  0.89340686    -0.05300
N422        N  0.43534528  0.38733408  0.87159953    -0.61700
N423        N  0.36775185  0.42411358  0.91702571    -0.04100
N424        N  0.33498996  0.41624225  0.91228504    -0.62300
N425        N  0.38757075  0.44428644  0.89353360    -0.04900
N426        N  0.36874747  0.45059671  0.87230177    -0.61900
N427        N  0.40892191  0.38514580  0.91676445    -0.03700
N428        N  0.40150601  0.35262226  0.91130480    -0.62600
Mn429      Mn  0.44343290  0.46080933  0.89127735     1.08600
C430        C  0.41838058  0.35459054  0.88320513     1.00400
C431        C  0.33622319  0.43311699  0.88446979     1.00400
N432        N  0.41176759  0.48210992  0.51598166    -0.04900
N433        N  0.39516054  0.48962667  0.53855116    -0.60200
N434        N  0.41289689  0.38915169  0.99428378    -0.04200
N435        N  0.40689112  0.35736605  0.00019704    -0.57000
N436        N  0.44906946  0.43935490  0.51562133    -0.05500
N437        N  0.45549019  0.42120297  0.53736152    -0.59800
N438        N  0.37120964  0.42772246  0.99441843    -0.04500
N439        N  0.33896347  0.42044323  0.00045446    -0.57000
Mn440      Mn  0.46702159  0.49580376  0.51621834     1.20200
Mn441      Mn  0.38926280  0.40557237  0.95568432     1.10100
Cl442      Cl  0.44615306  0.46383757  0.95376330    -0.85000
C443        C  0.36151661  0.47200855  0.52795771     0.97400
C444        C  0.43601143  0.38792429  0.52612605     0.97200
N445        N  0.99683770  0.53453541  0.50496963    -0.05100
N446        N  0.02035089  0.55116275  0.52856835    -0.57200
N447        N  0.92021216  0.52156855  0.97880659    -0.04800
N448        N  0.89462133  0.52813185  0.98411319    -0.59400
N449        N  0.91685303  0.49479182  0.50223086    -0.04400
N450        N  0.89202025  0.48706898  0.52376629    -0.57200
N451        N  0.00049543  0.56096854  0.98139642    -0.04100
N452        N  0.02583744  0.59289836  0.98883762    -0.59700
C453        C  0.03554142  0.58493029  0.51985718     0.97100
C454        C  0.87712139  0.50568535  0.51376102     0.96800
N455        N  0.92134961  0.50550730  0.87759505    -0.05300
N456        N  0.89622032  0.49893139  0.85596989    -0.57800
N457        N  0.00167680  0.56444176  0.90425781    -0.03400
N458        N  0.02780210  0.59667738  0.90136960    -0.59100
N459        N  0.00170667  0.54442162  0.88013636    -0.05300
N460        N  0.02788304  0.56262740  0.86027160    -0.58100
N461        N  0.92139429  0.52558966  0.90168324    -0.03100
N462        N  0.89629721  0.53312178  0.89698448    -0.59100
Mn463      Mn  0.96095940  0.54408722  0.94157939     1.18400
C464        C  0.88086895  0.51622456  0.86850894     0.99100
C465        C  0.04386902  0.59498233  0.87399384     0.99800
N466        N  0.91650299  0.42343613  0.49855946    -0.05300
N467        N  0.89127438  0.40516532  0.51928623    -0.61700
N468        N  0.99886290  0.44696785  0.97417656    -0.04100
N469        N  0.02406561  0.43958293  0.97876870    -0.62300
N470        N  0.99683507  0.46333773  0.50040287    -0.04900
N471        N  0.02256823  0.47101597  0.52161194    -0.61900
N472        N  0.91850719  0.40744377  0.97283309    -0.03700
N473        N  0.89394425  0.37477352  0.97774294    -0.62600
Mn474      Mn  0.95674351  0.47892572  0.50243982     1.10700
C475        C  0.87582930  0.37245133  0.50647417     1.00400
C476        C  0.03846507  0.45431129  0.50899241     1.00400
N477        N  0.00016990  0.47245162  0.87548197    -0.04900
N478        N  0.02511789  0.48012809  0.85405364    -0.60200
N479        N  0.91931958  0.41146501  0.89518362    -0.04200
N480        N  0.89398444  0.37955163  0.88787549    -0.57000
N481        N  0.92004517  0.43367750  0.87350900    -0.05500
N482        N  0.89517648  0.41733494  0.85097285    -0.59800
N483        N  0.99941510  0.45009803  0.89698522    -0.04500
N484        N  0.02385878  0.44210670  0.89065721    -0.57000
Mn485      Mn  0.96084228  0.48909663  0.87565734     1.20200
Mn486      Mn  0.95893615  0.42803510  0.93472497     1.10100
Cl487      Cl  0.95999428  0.48608971  0.93809273    -0.85000
C488        C  0.03971928  0.46121588  0.86403923     0.97400
C489        C  0.87916767  0.38377662  0.86047347     0.97200
N490        N  0.46448052  0.94796400  0.51121623    -0.05100
N491        N  0.45748280  0.92375899  0.53328440    -0.57200
N492        N  0.54762111  0.01643047  0.98924069    -0.04800
N493        N  0.57972036  0.04196008  0.99586528    -0.59400
N494        N  0.50263737  0.02810431  0.51189066    -0.04400
N495        N  0.51908675  0.05346798  0.53397764    -0.57200
N496        N  0.50665272  0.93603109  0.98768333    -0.04100
N497        N  0.51321550  0.91063163  0.99421881    -0.59700
C498        C  0.47687305  0.90948653  0.52378998     0.97100
C499        C  0.55263936  0.06953735  0.52419072     0.96800
N500        N  0.53062770  0.01715465  0.88814978    -0.05300
N501        N  0.54865843  0.04338101  0.86839468    -0.57800
N502        N  0.50942981  0.93623156  0.91009002    -0.03400
N503        N  0.51499944  0.90976588  0.90577900    -0.59100
N504        N  0.48945416  0.93680811  0.88615418    -0.05300
N505        N  0.48103910  0.91080283  0.86508683    -0.58100
N506        N  0.55079738  0.01688428  0.91201591    -0.03100
N507        N  0.58311530  0.04303200  0.90896319    -0.59100
Mn508      Mn  0.52967070  0.97633662  0.94975842     1.18400
C509        C  0.58114553  0.05922981  0.88173440     0.99100
C510        C  0.49704700  0.89421828  0.87771381     0.99800
N511        N  0.42996522  0.02558398  0.50770319    -0.05300
N512        N  0.43526373  0.04976567  0.52992486    -0.61700
N513        N  0.39426002  0.93781325  0.97998368    -0.04100
N514        N  0.36167863  0.91240192  0.98310824    -0.62300
N515        N  0.39183518  0.94547247  0.50561401    -0.04900
N516        N  0.37373628  0.91940792  0.52558557    -0.61900
N517        N  0.43487923  0.01802569  0.98269232    -0.03700
N518        N  0.42675365  0.04255802  0.98831940    -0.62600
Mn519      Mn  0.44714103  0.98676505  0.51009575     1.10700
C520        C  0.41708640  0.06436617  0.51785279     1.00400
C521        C  0.34137579  0.90310409  0.51177055     1.00400
N522        N  0.41892346  0.93863419  0.88098883    -0.04900
N523        N  0.40170603  0.91506761  0.85755728    -0.60200
N524        N  0.43876709  0.01899940  0.90531081    -0.04200
N525        N  0.43220103  0.04444333  0.89937255    -0.57000
N526        N  0.46048879  0.01873403  0.88360046    -0.05500
N527        N  0.46919471  0.04404627  0.86238932    -0.59800
N528        N  0.39710413  0.93896191  0.90254158    -0.04500
N529        N  0.36457608  0.91560136  0.89424403    -0.57000
Mn530      Mn  0.47500649  0.97776322  0.88376654     1.20200
Mn531      Mn  0.41543472  0.97847175  0.94263468     1.10100
Cl532      Cl  0.47247385  0.97734249  0.94619521    -0.85000
C533        C  0.36794904  0.90080447  0.86635545     0.97400
C534        C  0.45154040  0.05988636  0.87277345     0.97200
C535        C  0.43257944  0.35800549  0.54286132    -0.17500
C536        C  0.42814697  0.33205861  0.55643457     0.06600
C537        C  0.42229752  0.30139524  0.57223369     0.08400
C538        C  0.41773172  0.27555771  0.58611982    -0.18300
C539        C  0.41364235  0.09107166  0.53505760    -0.17500
C540        C  0.41133883  0.11314213  0.55075277     0.06600
C541        C  0.40951666  0.13919675  0.56970538     0.08400
C542        C  0.40892776  0.16211008  0.58559596    -0.18300
C543        C  0.41248787  0.22046765  0.68999041    -0.15400
C544        C  0.41510972  0.19683537  0.70837939    -0.30600
H545        H  0.41248006  0.24258988  0.70181193     0.13600
H546        H  0.41590831  0.17515617  0.69649073     0.14200
C547        C  0.41727034  0.25331370  0.81358096    -0.17500
C548        C  0.41606103  0.27538246  0.83025156     0.06600
C549        C  0.41578018  0.30168869  0.85002608     0.08400
C550        C  0.41650825  0.32511600  0.86609122    -0.18300
C551        C  0.43653068  0.15509804  0.81090572    -0.17500
C552        C  0.44210056  0.13451584  0.82499430     0.06600
C553        C  0.44747142  0.10966895  0.84149748     0.08400
C554        C  0.45048360  0.08755036  0.85571296    -0.18300
C555        C  0.66092120  0.50725410  0.81733500    -0.17500
C556        C  0.63538698  0.50142027  0.83256187     0.06600
C557        C  0.60519345  0.49489503  0.84969293     0.08400
C558        C  0.57968396  0.49066358  0.86400456    -0.18300
C559        C  0.77614793  0.52059134  0.81074383    -0.17500
C560        C  0.80046865  0.52015079  0.82395198     0.06600
C561        C  0.82852549  0.51888918  0.83949277     0.08400
C562        C  0.85234858  0.51758775  0.85277928    -0.18300
C563        C  0.67672672  0.51950290  0.58965914    -0.17500
C564        C  0.65269436  0.51865245  0.57456656     0.06600
C565        C  0.62488132  0.51775763  0.55637354     0.08400
C566        C  0.60104422  0.51726502  0.54124398    -0.18300
C567        C  0.73962168  0.52385144  0.69106086    -0.15400
C568        C  0.71478937  0.52244932  0.71081539    -0.30600
H569        H  0.76269480  0.52468553  0.70167067     0.13600
H570        H  0.69148524  0.52115602  0.70024225     0.14200
C571        C  0.78425778  0.51677334  0.58435123    -0.17500
C572        C  0.80519361  0.51411705  0.56767697     0.06600
C573        C  0.82946089  0.51074077  0.54801461     0.08400
C574        C  0.85064766  0.50807530  0.53175046    -0.18300
C575        C  0.66466263  0.16725595  0.58521258    -0.17500
C576        C  0.63773552  0.14535044  0.57239439     0.06600
C577        C  0.60680414  0.11975674  0.55648101     0.08400
C578        C  0.58131221  0.09735394  0.54212677    -0.18300
C579        C  0.77856086  0.26915497  0.57293079    -0.17500
C580        C  0.80031591  0.29150397  0.55604467     0.06600
C581        C  0.82588136  0.31866342  0.53715802     0.08400
C582        C  0.84821097  0.34274620  0.52225135    -0.18300
C583        C  0.67750016  0.16093436  0.81400451    -0.17500
C584        C  0.65729563  0.13881677  0.83204895     0.06600
C585        C  0.63274177  0.11227959  0.85209302     0.08400
C586        C  0.61024662  0.08860771  0.86721112    -0.18300
C587        C  0.71475634  0.20279168  0.70328719    -0.15400
C588        C  0.73776263  0.22578567  0.68220320    -0.30600
H589        H  0.69130953  0.17979333  0.69404000     0.13600
H590        H  0.76147263  0.24845463  0.69151882     0.14200
C591        C  0.77915002  0.27399047  0.79915149    -0.17500
C592        C  0.80215317  0.30033338  0.81173215     0.06600
C593        C  0.82869777  0.33049572  0.82769061     0.08400
C594        C  0.85147255  0.35541668  0.84228432    -0.18300
C595        C  0.23354797  0.42936822  0.81603794    -0.17500
C596        C  0.25517735  0.42849661  0.83353278     0.06600
C597        C  0.28202009  0.42916688  0.85297166     0.08400
C598        C  0.30620296  0.43072729  0.86826020    -0.18300
C599        C  0.06662304  0.45901949  0.84656234    -0.17500
C600        C  0.08833739  0.45586466  0.83165507     0.06600
C601        C  0.11331267  0.45107389  0.81458484     0.08400
C602        C  0.13489427  0.44652420  0.80108171    -0.18300
C603        C  0.17652311  0.44228127  0.68376072    -0.15400
C604        C  0.19742444  0.43870516  0.70558114    -0.30600
H605        H  0.15360738  0.44298052  0.69213051     0.13600
H606        H  0.22001727  0.43742821  0.69715343     0.14200
C607        C  0.25150337  0.45735853  0.59023465    -0.17500
C608        C  0.27781088  0.46143385  0.57757350     0.06600
C609        C  0.30788053  0.46625936  0.56115401     0.08400
C610        C  0.33280261  0.46967508  0.54622646    -0.18300
C611        C  0.06757247  0.45406398  0.52451940    -0.17500
C612        C  0.09138264  0.45364021  0.53870285     0.06600
C613        C  0.11839322  0.45293570  0.55673096     0.08400
C614        C  0.14059891  0.45214163  0.57344334    -0.18300
C615        C  0.13065661  0.69235751  0.58896347    -0.17500
C616        C  0.10785135  0.66674409  0.57498401     0.06600
C617        C  0.08247738  0.63768989  0.55645964     0.08400
C618        C  0.06125129  0.61346609  0.53977340    -0.18300
C619        C  0.31178488  0.87408262  0.52594805    -0.17500
C620        C  0.28686711  0.85062990  0.53880888     0.06600
C621        C  0.25847346  0.82419874  0.55559578     0.08400
C622        C  0.23558541  0.80239763  0.57186447    -0.18300
C623        C  0.14609901  0.70182677  0.81599358    -0.17500
C624        C  0.12403006  0.67829192  0.83154049     0.06600
C625        C  0.09704662  0.64954597  0.84757495     0.08400
C626        C  0.07318199  0.62458984  0.86004319    -0.18300
C627        C  0.20090753  0.76503260  0.68311586    -0.15400
C628        C  0.17942174  0.74329232  0.70567347    -0.30600
H629        H  0.22510986  0.78810386  0.69089529     0.13600
H630        H  0.15509196  0.72038959  0.69785520     0.14200
C631        C  0.33879997  0.87511770  0.84688457    -0.17500
C632        C  0.31373738  0.85391854  0.83096038     0.06600
C633        C  0.28359230  0.82878697  0.81335610     0.08400
C634        C  0.25715593  0.80654276  0.79987216    -0.18300
C635        C  0.48100589  0.67298066  0.81065883    -0.17500
C636        C  0.47704746  0.64780016  0.82547487     0.06600
C637        C  0.47279943  0.61884253  0.84355971     0.08400
C638        C  0.46998144  0.59461163  0.85928078    -0.18300
C639        C  0.49609780  0.86438312  0.86225010    -0.17500
C640        C  0.49509313  0.83983517  0.84800225     0.06600
C641        C  0.49381015  0.81155365  0.83027546     0.08400
C642        C  0.49267984  0.78764282  0.81470019    -0.18300
C643        C  0.49711730  0.63330395  0.53945929    -0.17500
C644        C  0.49809974  0.65798446  0.55336552     0.06600
C645        C  0.49873669  0.68623865  0.57047918     0.08400
C646        C  0.49862240  0.70973913  0.58564513    -0.18300
C647        C  0.48986492  0.81440418  0.58902490    -0.17500
C648        C  0.48652284  0.83617279  0.57441569     0.06600
C649        C  0.48252938  0.86140139  0.55687752     0.08400
C650        C  0.47949756  0.88306184  0.54173724    -0.18300
C651        C  0.49443782  0.73517766  0.70881671    -0.15400
C652        C  0.49581523  0.76155166  0.69146646    -0.30600
H653        H  0.49400448  0.71325986  0.69609294     0.13600
H654        H  0.49568445  0.78319700  0.70416557     0.14200
loop_ 
_geom_bond_atom_site_label_1 
_geom_bond_atom_site_label_2 
_geom_bond_distance 
_geom_bond_site_symmetry_2 
_ccdc_geom_bond_type 
C1            N2   1.354       .  A
C1            N6   1.355       .  A
C1          C319   1.431       .  S
N2            C3   1.356       .  A
C3            N4   1.364       .  A
C3          C325   1.477       .  S
N4            C5   1.361       .  A
C5            N6   1.356       .  A
C5          C320   1.438       .  S
C7            N8   1.359       .  A
C7           N12   1.356       .  A
C7          C308   1.437       .  S
N8            C9   1.363       .  A
C9           N10   1.357       .  A
C9          C324   1.478       .  S
N10          C11   1.355       .  A
C11          N12   1.355       .  A
C11         C315   1.431       .  S
C13          N14   1.359       .  A
C13          N18   1.356       .  A
C13         C307   1.437       .  S
N14          C15   1.362       .  A
C15          N16   1.357       .  A
C15         C301   1.477       .  S
N16          C17   1.356       .  A
C17          N18   1.355       .  A
C17         C296   1.433       .  S
C19          N20   1.355       .  A
C19          N24   1.356       .  A
C19         C295   1.432       .  S
N20          C21   1.356       .  A
C21          N22   1.358       .  A
C21         C288   1.436       .  S
N22          C23   1.362       .  A
C23          N24   1.357       .  A
C23         C300   1.477       .  S
C25          N26   1.356       .  A
C25          N30   1.354       .  A
C25         C287   1.431       .  S
N26          C27   1.358       .  A
C27          N28   1.362       .  A
C27         C276   1.476       .  S
N28          C29   1.358       .  A
C29          N30   1.355       .  A
C29         C280   1.434       .  S
C31          N32   1.355       .  A
C31          N36   1.358       .  A
C31         C275   1.435       .  S
N32          C33   1.355       .  A
C33          N34   1.355       .  A
C33         C268   1.431       .  S
N34          C35   1.357       .  A
C35          N36   1.362       .  A
C35         C277   1.476       .  S
C37          N38   1.356       .  A
C37          N42   1.355       .  A
C37         C264   1.431       .  S
N38          C39   1.359       .  A
C39          N40   1.360       .  A
C39         C260   1.479       .  S
N40          C41   1.359       .  A
C41          N42   1.355       .  A
C41         C256   1.436       .  S
C43          N44   1.356       .  A
C43          N48   1.359       .  A
C43         C252   1.439       .  S
N44          C45   1.356       .  A
C45          N46   1.356       .  A
C45         C248   1.435       .  S
N46          C47   1.360       .  A
C47          N48   1.361       .  A
C47         C261   1.479       .  S
C49          N50   1.359       .  A
C49          N54   1.356       .  A
C49         C236   1.436       .  S
N50          C51   1.362       .  A
C51          N52   1.357       .  A
C51         C240   1.477       .  S
N52          C53   1.355       .  A
C53          N54   1.355       .  A
C53         C244   1.432       .  S
C55          N56   1.355       .  A
C55          N60   1.355       .  A
C55         C228   1.432       .  S
N56          C57   1.356       .  A
C57          N58   1.359       .  A
C57         C232   1.436       .  S
N58          C59   1.362       .  A
C59          N60   1.357       .  A
C59         C241   1.477       .  S
C61          N62   1.355       .  A
C61          N66   1.356       .  A
C61         C224   1.432       .  S
N62          C63   1.355       .  A
C63          N64   1.358       .  A
C63         C220   1.436       .  S
N64          C65   1.360       .  A
C65          N66   1.360       .  A
C65         C217   1.478       .  S
C67          N68   1.356       .  A
C67          N72   1.359       .  A
C67         C215   1.438       .  S
N68          C69   1.356       .  A
C69          N70   1.356       .  A
C69         C211   1.434       .  S
N70          C71   1.360       .  A
C71          N72   1.360       .  A
C71         C216   1.478       .  S
N73          N74   1.320       .  A
N73          N79   1.316       .  A
N73        Mn102   2.196       .  S
N74          C81   1.349       .  A
N75          N77   1.316       .  A
N75          N76   1.320       .  A
N75         Mn91   2.202       .  S
N76          C82   1.350       .  A
N77          N78   1.320       .  A
N77        Mn102   2.199       .  S
N78          C82   1.350       .  A
N79          N80   1.323       .  A
N79         Mn91   2.212       .  S
N80          C81   1.353       .  A
C81         C311   1.438       .  S
C82         C231   1.433       .  S
N83          N84   1.320       .  A
N83         N416   1.316   1_554  A
N83        Mn113   2.198       .  S
N84          C92   1.350       .  A
N85          N86   1.321       .  A
N85         N414   1.317       .  A
N85         Mn91   2.202       .  S
N86         C420   1.351       .  A
N87          N88   1.320       .  A
N87         N412   1.316   1_554  A
N87        Mn113   2.200       .  S
N88          C93   1.350       .  A
N89          N90   1.322       .  A
N89         N410   1.317       .  A
N89         Mn91   2.208       .  S
N90         C419   1.352       .  A
Mn91       Cl115   2.551       .  S
C92         N417   1.351   1_554  A
C92         C239   1.436       .  S
C93         N413   1.350   1_554  A
C93         C316   1.432       .  S
N94          N95   1.320       .  A
N94         N100   1.316       .  A
N94        Mn102   2.198       .  S
N95         C103   1.350       .  A
N96          N98   1.316       .  A
N96          N97   1.320       .  A
N96        Mn114   2.197       .  S
N97         C104   1.350       .  A
N98          N99   1.319       .  A
N98        Mn102   2.195       .  S
N99         C104   1.349       .  A
N100        N101   1.322       .  A
N100       Mn114   2.206       .  S
N101        C103   1.352       .  A
Mn102      Cl115   2.545       .  S
C103        C223   1.436       .  S
C104        C271   1.430       .  S
N105        N106   1.320       .  A
N105        N438   1.316   1_554  A
N105       Mn113   2.197       .  S
N106        C116   1.350       .  A
N107        N108   1.319       .  A
N107        N436   1.317       .  A
N107       Mn114   2.195       .  S
N108        C444   1.349       .  A
N109        N110   1.321       .  A
N109        N434   1.316   1_554  A
N109       Mn113   2.203       .  S
N110        C117   1.351       .  A
N111        N112   1.321       .  A
N111        N432   1.316       .  A
N111       Mn114   2.205       .  S
N112        C443   1.351       .  A
Mn113      Cl442   2.546   1_554  S
Mn114      Cl115   2.549       .  S
Cl115      Mn440   2.547       .  S
C116        N439   1.351       .  A
C116        C283   1.434       .  S
C117        N435   1.350       .  A
C117        C208   1.434       .  S
N118        N119   1.321   1_655  A
N118        N451   1.316   1_654  A
N118       Mn147   2.199       .  S
N119        C126   1.350       .  A
N120        N121   1.321       .  A
N120        N449   1.317       .  A
N120       Mn136   2.204       .  S
N121        C454   1.351       .  A
N122        N123   1.320       .  A
N122        N447   1.316   1_554  A
N122       Mn147   2.199       .  S
N123        C127   1.350       .  A
N124        N125   1.321   1_655  A
N124        N445   1.317       .  A
N124       Mn136   2.209       .  S
N125        C453   1.352       .  A
C126        N452   1.351   1_554  A
C126        C291   1.436       .  S
C127        N448   1.350   1_554  A
C127        C247   1.432       .  S
N128        N134   1.316       .  A
N128        N129   1.320       .  A
N128       Mn158   2.198       .  S
N129        C137   1.350       .  A
N130        N131   1.321   1_655  A
N130        N132   1.317       .  A
N130       Mn136   2.205       .  S
N131        C138   1.351       .  A
N132        N133   1.320   1_655  A
N132       Mn158   2.201       .  S
N133        C138   1.350       .  A
N134        N135   1.322       .  A
N134       Mn136   2.206       .  S
N135        C137   1.352       .  A
Mn136      Cl160   2.550       .  S
C137        C235   1.436       .  S
C138        C299   1.434       .  S
N139        N140   1.320   1_556  A
N139        N472   1.316       .  A
N139       Mn147   2.198   1_556  S
N140        C148   1.349       .  A
N141        N142   1.320   1_655  A
N141        N470   1.316       .  A
N141       Mn159   2.198       .  S
N142        C476   1.350       .  A
N143        N144   1.319   1_656  A
N143        N468   1.316       .  A
N143       Mn147   2.199   1_556  S
N144        C149   1.350       .  A
N145        N146   1.321       .  A
N145        N466   1.316       .  A
N145       Mn159   2.202       .  S
N146        C475   1.351       .  A
Mn147      Cl487   2.544   1_554  S
C148        N473   1.353   1_554  A
C148        C255   1.439       .  S
C149        N469   1.350   1_554  A
C149        C284   1.431       .  S
N150        N151   1.321   1_655  A
N150        N156   1.316       .  A
N150       Mn158   2.202       .  S
N151        C161   1.350       .  A
N152        N153   1.319       .  A
N152        N154   1.316       .  A
N152       Mn159   2.195       .  S
N153        C162   1.349       .  A
N154        N155   1.320       .  A
N154       Mn158   2.201       .  S
N155        C162   1.350       .  A
N156        N157   1.321   1_655  A
N156       Mn159   2.202       .  S
N157        C161   1.351       .  A
Mn158      Cl160   2.545       .  S
Mn159      Cl160   2.551       .  S
Cl160      Mn474   2.545       .  S
C161        C272   1.436       .  S
C162        C267   1.431       .  S
N163        N164   1.320       .  A
N163        N496   1.316   1_554  A
N163       Mn192   2.201       .  S
N164        C171   1.350       .  A
N165        N166   1.319       .  A
N165        N494   1.317       .  A
N165       Mn181   2.197   1_545  S
N166        C499   1.349       .  A
N167        N168   1.321       .  A
N167        N492   1.317   1_554  A
N167       Mn192   2.202   1_545  S
N168        C172   1.351       .  A
N169        N170   1.321       .  A
N169        N490   1.316       .  A
N169       Mn181   2.203       .  S
N170        C498   1.351       .  A
C171        N497   1.353   1_554  A
C171        C323   1.439       .  S
C172        N493   1.351   1_554  A
C172        C251   1.436       .  S
N173        N179   1.316       .  A
N173        N174   1.319       .  A
N173       Mn203   2.194   1_545  S
N174        C182   1.349       .  A
N175        N176   1.320       .  A
N175        N177   1.316       .  A
N175       Mn181   2.198       .  S
N176        C183   1.350       .  A
N177        N178   1.320       .  A
N177       Mn203   2.199       .  S
N178        C183   1.350       .  A
N179        N180   1.322       .  A
N179       Mn181   2.206   1_545  S
N180        C182   1.352       .  A
Mn181      Cl205   2.548       .  S
C182        C259   1.435       .  S
C183        C312   1.431       .  S
N184        N185   1.321       .  A
N184        N517   1.316   1_554  A
N184       Mn192   2.203   1_545  S
N185        C193   1.351       .  A
N186        N187   1.319       .  A
N186        N515   1.317       .  A
N186       Mn204   2.193       .  S
N187        C521   1.348       .  A
N188        N189   1.320       .  A
N188        N513   1.317   1_554  A
N188       Mn192   2.200       .  S
N189        C194   1.350       .  A
N190        N191   1.323       .  A
N190        N511   1.317       .  A
N190       Mn204   2.214   1_545  S
N191        C520   1.353       .  A
Mn192      Cl532   2.546   1_554  S
C193        N518   1.351   1_554  A
C193        C212   1.439       .  S
C194        N514   1.350   1_554  A
C194        C292   1.432       .  S
N195        N196   1.320       .  A
N195        N201   1.316       .  A
N195       Mn203   2.194       .  S
N196        C206   1.349       .  A
N197        N198   1.320       .  A
N197        N199   1.316       .  A
N197       Mn204   2.199   1_545  S
N198        C207   1.350       .  A
N199        N200   1.320       .  A
N199       Mn203   2.198   1_545  S
N200        C207   1.350       .  A
N201        N202   1.322       .  A
N201       Mn204   2.213       .  S
N202        C206   1.353       .  A
Mn203      Cl205   2.546       .  S
Mn204      Cl205   2.550       .  S
Cl205      Mn519   2.547       .  S
C206        C304   1.438       .  S
C207        C227   1.432       .  S
C208        C209   1.205       .  T
C209        C210   1.411       .  S
C210        C211   1.205       .  T
C212        C213   1.207       .  T
C213        C214   1.415       .  S
C214        C215   1.207       .  T
C216        C217   1.347       .  D
C216        H218   1.086       .  S
C217        H219   1.086       .  S
C220        C221   1.206       .  T
C221        C222   1.413       .  S
C222        C223   1.206       .  T
C224        C225   1.203       .  T
C225        C226   1.408       .  S
C226        C227   1.203       .  T
C228        C229   1.204       .  T
C229        C230   1.409       .  S
C230        C231   1.204       .  T
C232        C233   1.206       .  T
C233        C234   1.413       .  S
C234        C235   1.206       .  T
C236        C237   1.206       .  T
C237        C238   1.413       .  S
C238        C239   1.206       .  T
C240        C241   1.342       .  D
C240        H242   1.087       .  S
C241        H243   1.087       .  S
C244        C245   1.203       .  T
C245        C246   1.408       .  S
C246        C247   1.203       .  T
C248        C249   1.205       .  T
C249        C250   1.412       .  S
C250        C251   1.206       .  T
C252        C253   1.208       .  T
C253        C254   1.415       .  S
C254        C255   1.208       .  T
C256        C257   1.206       .  T
C257        C258   1.412       .  S
C258        C259   1.205       .  T
C260        C261   1.347       .  D
C260        H262   1.087       .  S
C261        H263   1.087       .  S
C264        C265   1.203       .  T
C265        C266   1.407       .  S
C266        C267   1.203       .  T
C268        C269   1.203       .  T
C269        C270   1.407       .  S
C270        C271   1.202       .  T
C272        C273   1.205       .  T
C273        C274   1.412       .  S
C274        C275   1.205       .  T
C276        C277   1.343       .  D
C276        H278   1.087       .  S
C277        H279   1.087       .  S
C280        C281   1.205       .  T
C281        C282   1.411       .  S
C282        C283   1.205       .  T
C284        C285   1.203       .  T
C285        C286   1.408       .  S
C286        C287   1.203       .  T
C288        C289   1.206       .  T
C289        C290   1.412       .  S
C290        C291   1.206       .  T
C292        C293   1.203       .  T
C293        C294   1.408       .  S
C294        C295   1.203       .  T
C296        C297   1.204       .  T
C297        C298   1.410       .  S
C298        C299   1.204       .  T
C300        C301   1.343       .  D
C300        H302   1.087       .  S
C301        H303   1.087       .  S
C304        C305   1.207       .  T
C305        C306   1.414       .  S
C306        C307   1.207       .  T
C308        C309   1.207       .  T
C309        C310   1.414       .  S
C310        C311   1.207       .  T
C312        C313   1.203       .  T
C313        C314   1.407       .  S
C314        C315   1.203       .  T
C316        C317   1.203       .  T
C317        C318   1.408       .  S
C318        C319   1.203       .  T
C320        C321   1.207       .  T
C321        C322   1.415       .  S
C322        C323   1.207       .  T
C324        C325   1.341       .  D
C324        H326   1.087       .  S
C325        H327   1.087       .  S
C328        N329   1.357       .  A
C328        N333   1.357       .  A
C328        C646   1.436       .  S
N329        C330   1.360       .  A
C330        N331   1.359       .  A
C330        C652   1.479       .  S
N331        C332   1.358       .  A
C332        N333   1.357       .  A
C332        C647   1.438       .  S
C334        N335   1.358       .  A
C334        N339   1.357       .  A
C334        C635   1.439       .  S
N335        C336   1.360       .  A
C336        N337   1.361       .  A
C336        C651   1.480       .  S
N337        C338   1.358       .  A
C338        N339   1.357       .  A
C338        C642   1.438       .  S
C340        N341   1.361       .  A
C340        N345   1.358       .  A
C340        C634   1.441       .  S
N341        C342   1.364       .  A
C342        N343   1.355       .  A
C342        C628   1.477       .  S
N343        C344   1.353       .  A
C344        N345   1.356       .  A
C344        C623   1.432       .  S
C346        N347   1.355       .  A
C346        N351   1.354       .  A
C346        C622   1.430       .  S
N347        C348   1.356       .  A
C348        N349   1.361       .  A
C348        C615   1.438       .  S
N349        C350   1.364       .  A
C350        N351   1.355       .  A
C350        C627   1.477       .  S
C352        N353   1.355       .  A
C352        N357   1.356       .  A
C352        C614   1.432       .  S
N353        C354   1.356       .  A
C354        N355   1.362       .  A
C354        C603   1.476       .  S
N355        C356   1.359       .  A
C356        N357   1.357       .  A
C356        C607   1.437       .  S
C358        N359   1.355       .  A
C358        N363   1.358       .  A
C358        C602   1.435       .  S
N359        C360   1.354       .  A
C360        N361   1.355       .  A
C360        C595   1.430       .  S
N361        C362   1.357       .  A
C362        N363   1.362       .  A
C362        C604   1.476       .  S
C364        N365   1.355       .  A
C364        N369   1.355       .  A
C364        C591   1.431       .  S
N365        C366   1.360       .  A
C366        N367   1.359       .  A
C366        C587   1.477       .  S
N367        C368   1.358       .  A
C368        N369   1.355       .  A
C368        C583   1.434       .  S
C370        N371   1.356       .  A
C370        N375   1.357       .  A
C370        C579   1.435       .  S
N371        C372   1.356       .  A
C372        N373   1.357       .  A
C372        C575   1.434       .  S
N373        C374   1.360       .  A
C374        N375   1.358       .  A
C374        C588   1.475       .  S
C376        N377   1.358       .  A
C376        N381   1.355       .  A
C376        C563   1.435       .  S
N377        C378   1.362       .  A
C378        N379   1.359       .  A
C378        C567   1.477       .  S
N379        C380   1.356       .  A
C380        N381   1.355       .  A
C380        C571   1.434       .  S
C382        N383   1.357       .  A
C382        N387   1.357       .  A
C382        C555   1.434       .  S
N383        C384   1.357       .  A
C384        N385   1.357       .  A
C384        C559   1.436       .  S
N385        C386   1.361       .  A
C386        N387   1.358       .  A
C386        C568   1.478       .  S
C388        N389   1.355       .  A
C388        N393   1.356       .  A
C388        C551   1.434       .  S
N389        C390   1.356       .  A
C390        N391   1.360       .  A
C390        C547   1.438       .  S
N391        C392   1.363       .  A
C392        N393   1.358       .  A
C392        C544   1.479       .  S
C394        N395   1.357       .  A
C394        N399   1.360       .  A
C394        C542   1.440       .  S
N395        C396   1.357       .  A
C396        N397   1.356       .  A
C396        C538   1.435       .  S
N397        C398   1.357       .  A
C398        N399   1.363       .  A
C398        C543   1.479       .  S
N400        N401   1.321       .  A
N400        N406   1.316       .  A
N400       Mn429   2.203       .  S
N401        C408   1.351       .  A
N402        N404   1.316       .  A
N402        N403   1.319       .  A
N402       Mn418   2.195       .  S
N403        C409   1.349       .  A
N404        N405   1.321       .  A
N404       Mn429   2.205       .  S
N405        C409   1.352       .  A
N406        N407   1.321       .  A
N406       Mn418   2.207       .  S
N407        C408   1.351       .  A
C408        C638   1.439       .  S
C409        C558   1.434       .  S
N410        N411   1.320       .  A
N410       Mn440   2.199       .  S
N411        C419   1.350       .  A
N412        N413   1.320       .  A
N412       Mn418   2.198       .  S
N414        N415   1.321       .  A
N414       Mn440   2.207       .  S
N415        C420   1.351       .  A
N416        N417   1.321       .  A
N416       Mn418   2.206       .  S
Mn418      Cl442   2.548       .  S
C419        C566   1.436       .  S
C420        C643   1.437       .  S
N421        N422   1.320       .  A
N421        N427   1.316       .  A
N421       Mn429   2.200       .  S
N422        C430   1.349       .  A
N423        N425   1.317       .  A
N423        N424   1.320       .  A
N423       Mn441   2.198       .  S
N424        C431   1.350       .  A
N425        N426   1.319       .  A
N425       Mn429   2.200       .  S
N426        C431   1.350       .  A
N427        N428   1.322       .  A
N427       Mn441   2.206       .  S
N428        C430   1.352       .  A
Mn429      Cl442   2.545       .  S
C430        C550   1.437       .  S
C431        C598   1.431       .  S
N432        N433   1.321       .  A
N432       Mn440   2.202       .  S
N433        C443   1.351       .  A
N434        N435   1.320   1_556  A
N434       Mn441   2.200       .  S
N436        N437   1.322       .  A
N436       Mn440   2.211       .  S
N437        C444   1.352       .  A
N438        N439   1.321   1_556  A
N438       Mn441   2.205       .  S
Mn441      Cl442   2.550       .  S
C443        C610   1.437       .  S
C444        C535   1.436       .  S
N445        N446   1.321   1_655  A
N445       Mn474   2.199       .  S
N446        C453   1.350       .  A
N447        N448   1.320       .  A
N447       Mn463   2.198       .  S
N449        N450   1.320       .  A
N449       Mn474   2.200       .  S
N450        C454   1.350       .  A
N451        N452   1.321       .  A
N451       Mn463   2.202   1_455  S
C453        C618   1.438       .  S
C454        C574   1.434       .  S
N455        N461   1.316       .  A
N455        N456   1.321       .  A
N455       Mn485   2.202       .  S
N456        C464   1.351       .  A
N457        N458   1.320       .  A
N457        N459   1.316       .  A
N457       Mn463   2.197   1_455  S
N458        C465   1.349       .  A
N459        N460   1.320       .  A
N459       Mn485   2.203   1_455  S
N460        C465   1.351       .  A
N461        N462   1.321       .  A
N461       Mn463   2.202       .  S
N462        C464   1.351       .  A
Mn463      Cl487   2.548       .  S
C464        C562   1.436       .  S
C465        C626   1.432       .  S
N466        N467   1.320       .  A
N466       Mn474   2.199       .  S
N467        C475   1.350       .  A
N468        N469   1.320   1_655  A
N468       Mn486   2.198       .  S
N470        N471   1.320   1_655  A
N470       Mn474   2.201       .  S
N471        C476   1.350       .  A
N472        N473   1.323       .  A
N472       Mn486   2.212       .  S
C475        C582   1.436       .  S
C476        C611   1.432       .  S
N477        N478   1.321       .  A
N477        N483   1.316   1_455  A
N477       Mn485   2.201   1_455  S
N478        C488   1.351       .  A
N479        N480   1.319       .  A
N479        N481   1.317       .  A
N479       Mn486   2.197       .  S
N480        C489   1.349       .  A
N481        N482   1.320       .  A
N481       Mn485   2.201       .  S
N482        C489   1.350       .  A
N483        N484   1.321   1_655  A
N483       Mn486   2.204       .  S
N484        C488   1.351       .  A
Mn485      Cl487   2.547       .  S
Mn486      Cl487   2.548       .  S
C488        C599   1.436       .  S
C489        C594   1.431       .  S
N490        N491   1.321       .  A
N490       Mn519   2.203       .  S
N491        C498   1.351       .  A
N492        N493   1.321       .  A
N492       Mn508   2.206   1_545  S
N494        N495   1.322       .  A
N494       Mn519   2.208   1_545  S
N495        C499   1.352       .  A
N496        N497   1.323       .  A
N496       Mn508   2.209       .  S
C498        C650   1.438       .  S
C499        C578   1.434       .  S
N500        N506   1.316       .  A
N500        N501   1.318       .  A
N500       Mn530   2.194   1_545  S
N501        C509   1.348       .  A
N502        N503   1.322       .  A
N502        N504   1.317       .  A
N502       Mn508   2.209       .  S
N503        C510   1.352       .  A
N504        N505   1.320       .  A
N504       Mn530   2.205       .  S
N505        C510   1.350       .  A
N506        N507   1.322       .  A
N506       Mn508   2.206   1_545  S
N507        C509   1.352       .  A
Mn508      Cl532   2.553       .  S
C509        C586   1.433       .  S
C510        C639   1.438       .  S
N511        N512   1.320       .  A
N511       Mn519   2.201   1_545  S
N512        C520   1.350       .  A
N513        N514   1.320       .  A
N513       Mn531   2.198       .  S
N515        N516   1.320       .  A
N515       Mn519   2.206       .  S
N516        C521   1.351       .  A
N517        N518   1.321       .  A
N517       Mn531   2.207   1_545  S
C520        C539   1.441       .  S
C521        C619   1.430       .  S
N522        N523   1.322       .  A
N522        N528   1.316       .  A
N522       Mn530   2.203       .  S
N523        C533   1.352       .  A
N524        N525   1.320       .  A
N524        N526   1.316       .  A
N524       Mn531   2.198   1_545  S
N525        C534   1.350       .  A
N526        N527   1.321       .  A
N526       Mn530   2.205   1_545  S
N527        C534   1.351       .  A
N528        N529   1.321       .  A
N528       Mn531   2.208       .  S
N529        C533   1.351       .  A
Mn530      Cl532   2.546       .  S
Mn531      Cl532   2.549       .  S
C533        C631   1.441       .  S
C534        C554   1.435       .  S
C535        C536   1.206       .  T
C536        C537   1.412       .  S
C537        C538   1.206       .  T
C539        C540   1.208       .  T
C540        C541   1.417       .  S
C541        C542   1.208       .  T
C543        C544   1.343       .  D
C543        H545   1.087       .  S
C544        H546   1.086       .  S
C547        C548   1.207       .  T
C548        C549   1.414       .  S
C549        C550   1.207       .  T
C551        C552   1.205       .  T
C552        C553   1.411       .  S
C553        C554   1.205       .  T
C555        C556   1.205       .  T
C556        C557   1.410       .  S
C557        C558   1.204       .  T
C559        C560   1.206       .  T
C560        C561   1.412       .  S
C561        C562   1.206       .  T
C563        C564   1.205       .  T
C564        C565   1.412       .  S
C565        C566   1.205       .  T
C567        C568   1.344       .  D
C567        H569   1.087       .  S
C568        H570   1.087       .  S
C571        C572   1.205       .  T
C572        C573   1.410       .  S
C573        C574   1.205       .  T
C575        C576   1.205       .  T
C576        C577   1.410       .  S
C577        C578   1.205       .  T
C579        C580   1.205       .  T
C580        C581   1.412       .  S
C581        C582   1.205       .  T
C583        C584   1.204       .  T
C584        C585   1.410       .  S
C585        C586   1.204       .  T
C587        C588   1.345       .  D
C587        H589   1.087       .  S
C588        H590   1.087       .  S
C591        C592   1.203       .  T
C592        C593   1.407       .  S
C593        C594   1.203       .  T
C595        C596   1.203       .  T
C596        C597   1.407       .  S
C597        C598   1.203       .  T
C599        C600   1.206       .  T
C600        C601   1.412       .  S
C601        C602   1.206       .  T
C603        C604   1.342       .  D
C603        H605   1.087       .  S
C604        H606   1.087       .  S
C607        C608   1.206       .  T
C608        C609   1.413       .  S
C609        C610   1.206       .  T
C611        C612   1.204       .  T
C612        C613   1.409       .  S
C613        C614   1.204       .  T
C615        C616   1.207       .  T
C616        C617   1.414       .  S
C617        C618   1.207       .  T
C619        C620   1.202       .  T
C620        C621   1.406       .  S
C621        C622   1.202       .  T
C623        C624   1.203       .  T
C624        C625   1.409       .  S
C625        C626   1.204       .  T
C627        C628   1.340       .  D
C627        H629   1.087       .  S
C628        H630   1.087       .  S
C631        C632   1.209       .  T
C632        C633   1.417       .  S
C633        C634   1.209       .  T
C635        C636   1.208       .  T
C636        C637   1.415       .  S
C637        C638   1.208       .  T
C639        C640   1.207       .  T
C640        C641   1.414       .  S
C641        C642   1.207       .  T
C643        C644   1.206       .  T
C644        C645   1.413       .  S
C645        C646   1.206       .  T
C647        C648   1.207       .  T
C648        C649   1.414       .  S
C649        C650   1.207       .  T
C651        C652   1.346       .  D
C651        H653   1.086       .  S
C652        H654   1.086       .  S
