geometry optimzed in LAMMPS
_audit_creation_date              2020-12-01 
_audit_creation_method            'lammps2cif' 
_symmetry_space_group_name_H-M    'P1' 
_symmetry_Int_Tables_number       1 
_symmetry_cell_setting            triclinic 
loop_ 
_symmetry_equiv_pos_as_xyz 
  x,y,z 
_cell_length_a                    47.3653056 
_cell_length_b                    47.52750869197929 
_cell_length_c                    37.01352514765461 
_cell_angle_alpha                 89.85040383079193 
_cell_angle_beta                  90.20158982946981 
_cell_angle_gamma                 125.01080979207816 
loop_ 
_atom_site_label 
_atom_site_type_symbol 
_atom_site_fract_x 
_atom_site_fract_y 
_atom_site_fract_z 
_atom_site_charge 
C1          C  0.52832672  0.85334094  0.99528709     0.04300
C2          C  0.52468850  0.86437416  0.46144082    -0.11900
C3          C  0.51675132  0.88862551  0.45902685     0.01800
C4          C  0.51240038  0.90176661  0.49081747    -0.10400
C5          C  0.51671011  0.89152523  0.02471061     0.04300
C6          C  0.52444089  0.86713027  0.02684452    -0.09800
H7          H  0.52797823  0.85405808  0.43699821     0.09900
H8          H  0.50744048  0.92135198  0.48918716     0.07400
H9          H  0.52819963  0.85948509  0.05303357     0.07200
C10         C  0.29028236  0.90903874  0.49227466     0.04300
C11         C  0.30912190  0.92413072  0.46044020    -0.11900
C12         C  0.34432521  0.95086323  0.46185812     0.01800
C13         C  0.36034535  0.96354895  0.49553530    -0.10400
C14         C  0.34159725  0.94939853  0.02768190     0.04300
C15         C  0.30647910  0.92232437  0.02578129    -0.09800
H16         H  0.29674187  0.91397191  0.43446708     0.09900
H17         H  0.38786338  0.98312914  0.49672812     0.07400
H18         H  0.29214729  0.91049412  0.05043900     0.07200
N19         N  0.60264088  0.09743366  0.28527977    -0.05000
N20         N  0.62274668  0.11684575  0.31221379    -0.57100
N21         N  0.59895453  0.06891454  0.20147702    -0.04600
N22         N  0.61520824  0.06758523  0.17332301    -0.59200
N23         N  0.60209771  0.09824309  0.20198112    -0.04200
N24         N  0.62063555  0.11748855  0.17422767    -0.57100
N25         N  0.59941421  0.06802844  0.28498846    -0.03900
N26         N  0.61713286  0.06680558  0.31185375    -0.59600
C27         C  0.63163578  0.09747467  0.32861494     0.97200
C28         C  0.62869924  0.09809032  0.15651351     0.97000
N29         N  0.50309712  0.97470001  0.20022088    -0.05100
N30         N  0.49013541  0.95475674  0.17134141    -0.57700
N31         N  0.53722353  0.98976152  0.28377949    -0.03300
N32         N  0.54753588  0.97904566  0.31031591    -0.58900
N33         N  0.50347296  0.97292170  0.28398098    -0.05200
N34         N  0.49015409  0.95053532  0.31081457    -0.57900
N35         N  0.53687492  0.99168554  0.20056091    -0.02900
N36         N  0.54753192  0.98367278  0.17211272    -0.59000
Mn37       Mn  0.56884798  0.02925676  0.24281302     1.18400
C38         C  0.51823933  0.96060979  0.15402426     0.99300
C39         C  0.51792949  0.95454878  0.32700798     1.00000
N40         N  0.54994096  0.11888517  0.20277024    -0.05200
N41         N  0.56293959  0.14015778  0.17496664    -0.61500
N42         N  0.51650362  0.10156321  0.28577183    -0.04000
N43         N  0.50585940  0.11141089  0.31258198    -0.62200
N44         N  0.55026897  0.11855020  0.28623284    -0.04700
N45         N  0.56327560  0.14036327  0.31359258    -0.61800
N46         N  0.51615795  0.10187682  0.20308275    -0.03600
N47         N  0.50549912  0.11130576  0.17571921    -0.62500
Mn48       Mn  0.57724443  0.10952424  0.24416835     1.10700
C49         C  0.53488330  0.13520722  0.15839350     1.00500
C50         C  0.53519949  0.13562441  0.32979103     1.00600
N51         N  0.45215950  0.99466164  0.28577817    -0.04700
N52         N  0.43416679  0.97566371  0.31383876    -0.60100
N53         N  0.45367084  0.02412907  0.20288357    -0.04000
N54         N  0.43555216  0.02504749  0.17627315    -0.56800
N55         N  0.45044067  0.99475649  0.20277779    -0.05300
N56         N  0.42992760  0.97498900  0.17629185    -0.59700
N57         N  0.45525062  0.02398359  0.28628372    -0.04300
N58         N  0.43955453  0.02559189  0.31479999    -0.56800
Mn59       Mn  0.47633259  0.98302710  0.24317726     1.20200
Mn60       Mn  0.48466674  0.06318886  0.24444402     1.10100
Cl61       Cl  0.52678938  0.04626594  0.24370972    -0.84800
C62         C  0.42644934  0.99522962  0.33173636     0.97500
C63         C  0.42080179  0.99415324  0.15996702     0.97300
C64         C  0.52470487  0.23821967  0.49483670     0.04300
C65         C  0.52804535  0.22626640  0.46158580    -0.11900
C66         C  0.53503181  0.20131436  0.46059953     0.01800
C67         C  0.53883629  0.18844417  0.49299775    -0.10400
C68         C  0.53485408  0.19977054  0.02625411     0.04300
C69         C  0.52795885  0.22470499  0.02699224    -0.09800
H70         H  0.52530463  0.23634344  0.43653689     0.09900
H71         H  0.54331414  0.16849290  0.49229270     0.07400
H72         H  0.52447231  0.23312524  0.05274378     0.07200
C73         C  0.76455896  0.18196648  0.99512513     0.04300
C74         C  0.74841094  0.16817016  0.46162456    -0.11900
C75         C  0.71310739  0.14124388  0.45984355     0.01800
C76         C  0.69430828  0.12756874  0.49205245    -0.10400
C77         C  0.71016225  0.14115719  0.02562391     0.04300
C78         C  0.74530497  0.16805699  0.02696859    -0.09800
H79         H  0.76288295  0.17946351  0.43692021     0.09900
H80         H  0.66682452  0.10779981  0.49093160     0.07400
H81         H  0.75744412  0.17894010  0.05287369     0.07200
N82         N  0.05258319  0.61301002  0.28995457    -0.05000
N83         N  0.04997997  0.62825407  0.31814657    -0.57100
N84         N  0.08248338  0.61814376  0.20683350    -0.04600
N85         N  0.10169055  0.63835215  0.17993824    -0.59200
N86         N  0.05252202  0.61390831  0.20695333    -0.04200
N87         N  0.05066582  0.63107166  0.18007673    -0.57100
N88         N  0.08259164  0.61732159  0.28987254    -0.03900
N89         N  0.10109771  0.63571842  0.31806633    -0.59600
C90         C  0.08040673  0.64235782  0.33545952     0.97200
C91         C  0.08152631  0.64623846  0.16344504     0.97000
N92         N  0.08894269  0.53406113  0.20602077    -0.05100
N93         N  0.09839520  0.52391414  0.17834610    -0.57700
N94         N  0.10644581  0.56794235  0.28897739    -0.03300
N95         N  0.12836044  0.58155244  0.31629511    -0.58900
N96         N  0.09020766  0.53441132  0.28878843    -0.05200
N97         N  0.10072134  0.52446127  0.31574981    -0.57900
N98         N  0.10514790  0.56763705  0.20554369    -0.02900
N99         N  0.12591431  0.58098727  0.17734099    -0.59000
Mn100      Mn  0.09546478  0.59381721  0.24777679     1.18400
C101        C  0.12146427  0.55336133  0.16063475     0.99300
C102        C  0.12453053  0.55405558  0.33269693     1.00000
N103        N  0.97525844  0.55063504  0.20716593    -0.05200
N104        N  0.96515082  0.56102180  0.18023663    -0.61500
N105        N  0.95907225  0.51703831  0.29041319    -0.04000
N106        N  0.93749606  0.50377576  0.31803400    -0.62200
N107        N  0.97545435  0.55060387  0.28987864    -0.04700
N108        N  0.96535440  0.56086502  0.31682360    -0.61800
N109        N  0.95882016  0.51703627  0.20662585    -0.03600
N110        N  0.93713887  0.50390621  0.17898899    -0.62500
Mn111      Mn  0.01365441  0.58269115  0.24843045     1.10700
C112        C  0.94135050  0.53174640  0.16281444     1.00500
C113        C  0.94165901  0.53150654  0.33423529     1.00600
N114        N  0.01306004  0.47185002  0.29070294    -0.04700
N115        N  0.01601179  0.45703797  0.31932174    -0.60100
N116        N  0.98208182  0.46641947  0.20714886    -0.04000
N117        N  0.96306605  0.44657205  0.17986776    -0.56800
N118        N  0.01200543  0.47056428  0.20736666    -0.05300
N119        N  0.01398702  0.45372395  0.18036763    -0.59700
N120        N  0.98310713  0.46768553  0.29079251    -0.04300
N121        N  0.96512371  0.44995261  0.31948355    -0.56800
Mn122      Mn  0.05135364  0.50197779  0.24820490     1.20200
Mn123      Mn  0.96940837  0.49087113  0.24863764     1.10100
Cl124      Cl  0.03244517  0.54231916  0.24814516    -0.84800
C125        C  0.98589151  0.44341618  0.33711939     0.97500
C126        C  0.98329200  0.43879436  0.16335592     0.97300
C127        C  0.22653777  0.54397420  0.49821904     0.04300
C128        C  0.21486389  0.54822672  0.46526860    -0.11900
C129        C  0.19048344  0.55602399  0.46459434     0.01800
C130        C  0.17838902  0.56038828  0.49714149    -0.10400
C131        C  0.18981359  0.55603338  0.03030248     0.04300
C132        C  0.21403128  0.54793293  0.03067775    -0.09800
H133        H  0.22395528  0.54443185  0.44015172     0.09900
H134        H  0.15863066  0.56522536  0.49664317     0.07400
H135        H  0.22276516  0.54422177  0.05619800     0.07200
C136        C  0.90167457  0.30820437  0.49869188     0.04300
C137        C  0.91653109  0.32603313  0.46624746    -0.11900
C138        C  0.94569735  0.36033112  0.46673166     0.01800
C139        C  0.96063895  0.37629089  0.49992563    -0.10400
C140        C  0.94570419  0.35879292  0.03241334     0.04300
C141        C  0.91670804  0.32465697  0.03164141    -0.09800
H142        H  0.90394005  0.31416409  0.44078847     0.09900
H143        H  0.98178325  0.40329837  0.50056169     0.07400
H144        H  0.90436563  0.31170814  0.05679794     0.07200
C145        C  0.84010735  0.54578581  0.49844556     0.04300
C146        C  0.85173191  0.54128350  0.46551489    -0.11900
C147        C  0.87563038  0.53267524  0.46503916     0.01800
C148        C  0.88758268  0.52827455  0.49787624    -0.10400
C149        C  0.87649103  0.53313771  0.03086373     0.04300
C150        C  0.85270913  0.54173909  0.03095793    -0.09800
H151        H  0.84224237  0.54450823  0.44027347     0.09900
H152        H  0.90684518  0.52276027  0.49777109     0.07400
H153        H  0.84453584  0.54597874  0.05646049     0.07200
C154        C  0.15952197  0.77655631  0.49593784     0.04300
C155        C  0.14396438  0.75754884  0.46436437    -0.11900
C156        C  0.11809503  0.72230723  0.46605856     0.01800
C157        C  0.10589165  0.70635977  0.49973065    -0.10400
C158        C  0.12052984  0.72524673  0.03168258     0.04300
C159        C  0.14728420  0.76042897  0.02963408    -0.09800
H160        H  0.15359279  0.76973060  0.43823946     0.09900
H161        H  0.08678184  0.67881545  0.50106267     0.07400
H162        H  0.15978757  0.77471444  0.05416157     0.07200
N163        N  0.49569086  0.47222954  0.21364731    -0.05000
N164        N  0.47920487  0.45120959  0.18630803    -0.57100
N165        N  0.52884785  0.48357730  0.29621764    -0.04600
N166        N  0.53585833  0.47149087  0.32428583    -0.59200
N167        N  0.49620835  0.47227410  0.29631799    -0.04200
N168        N  0.48031834  0.45227968  0.32450861    -0.57100
N169        N  0.52832206  0.48348765  0.21357835    -0.03900
N170        N  0.53474099  0.47033717  0.18624479    -0.59600
C171        C  0.50391709  0.45025484  0.16947251     0.97200
C172        C  0.50538230  0.45199022  0.34170315     0.97000
N173        N  0.60973822  0.58741524  0.29651132    -0.05100
N174        N  0.63065826  0.60370789  0.32426685    -0.57700
N175        N  0.59942795  0.55539731  0.21335835    -0.03300
N176        N  0.61385015  0.54948768  0.18688429    -0.58900
N177        N  0.60947141  0.58756465  0.21282467    -0.05200
N178        N  0.63103009  0.60417615  0.18567478    -0.57900
N179        N  0.59968981  0.55526333  0.29595246    -0.02900
N180        N  0.61347586  0.54903066  0.32299389    -0.59000
Mn181      Mn  0.56456348  0.51891574  0.25472143     1.18400
C182        C  0.63279484  0.57934701  0.34055173     0.99300
C183        C  0.63354494  0.57999798  0.16970776     1.00000
N184        N  0.45703163  0.50692770  0.29680497    -0.05200
N185        N  0.43753005  0.49058898  0.32525804    -0.61500
N186        N  0.46589930  0.53888783  0.21373299    -0.04000
N187        N  0.45131105  0.54443946  0.18694841    -0.62200
N188        N  0.45609348  0.50683626  0.21356046    -0.04700
N189        N  0.43462191  0.48987675  0.18647432    -0.61800
N190        N  0.46677304  0.53893827  0.29644532    -0.03600
N191        N  0.45412756  0.54512613  0.32444909    -0.62500
Mn192      Mn  0.47511675  0.48834544  0.25502060     1.10700
C193        C  0.43592143  0.51483886  0.34222831     1.00500
C194        C  0.43183008  0.51371259  0.17010373     1.00600
N195        N  0.56920855  0.62278770  0.21314856    -0.04700
N196        N  0.58458539  0.64398257  0.18549040    -0.60100
N197        N  0.53677206  0.61045844  0.29630114    -0.04000
N198        N  0.52914813  0.62211530  0.32404388    -0.56800
N199        N  0.56953792  0.62214819  0.29691578    -0.05300
N200        N  0.58487390  0.64209415  0.32544229    -0.59700
N201        N  0.53640747  0.61099380  0.21385896    -0.04300
N202        N  0.52882692  0.62381414  0.18706909    -0.56800
Mn203      Mn  0.59084132  0.60644373  0.25477471     1.20200
Mn204      Mn  0.50103607  0.57534071  0.25499040     1.10100
Cl205      Cl  0.53297701  0.54732645  0.25473923    -0.84800
C206        C  0.55896633  0.64437403  0.16949051     0.97500
C207        C  0.55923399  0.64183828  0.34206209     0.97300
C208        C  0.49246568  0.33779856  0.50420735     0.04300
C209        C  0.48916692  0.34951284  0.03755326    -0.11900
C210        C  0.48537741  0.37662421  0.03893137     0.01800
C211        C  0.48389361  0.39143619  0.00692396    -0.10400
C212        C  0.48746297  0.37995896  0.47370069     0.04300
C213        C  0.49157956  0.35314353  0.47232668    -0.09800
H214        H  0.49083508  0.33847365  0.06244770     0.09900
H215        H  0.48245532  0.41338786  0.00795254     0.07400
H216        H  0.49571695  0.34536293  0.44650336     0.07200
C217        C  0.32042822  0.50401454  0.50222100     0.04300
C218        C  0.33142535  0.50040295  0.03600199    -0.11900
C219        C  0.35762151  0.49510748  0.03843976     0.01800
C220        C  0.37219970  0.49253486  0.00680045    -0.10400
C221        C  0.36151299  0.49648239  0.47296938     0.04300
C222        C  0.33520404  0.50159240  0.47083676    -0.09800
H223        H  0.32093111  0.50355308  0.06041033     0.09900
H224        H  0.39370488  0.49031775  0.00859495     0.07400
H225        H  0.32724965  0.50516689  0.44471831     0.07200
C226        C  0.74534578  0.58561372  0.50459980     0.04300
C227        C  0.73324800  0.58915617  0.03767605    -0.11900
C228        C  0.70753755  0.59527890  0.03857507     0.01800
C229        C  0.69440998  0.59859221  0.50597223    -0.10400
C230        C  0.70597568  0.59458691  0.47279065     0.04300
C231        C  0.73165713  0.58851308  0.47230841    -0.09800
H232        H  0.74305869  0.58610461  0.06279036     0.09900
H233        H  0.67344855  0.60168792  0.00645302     0.07400
H234        H  0.73974550  0.58433433  0.44671046     0.07200
C235        C  0.56111330  0.75351337  0.50321528     0.04300
C236        C  0.56295370  0.74041436  0.03648260    -0.11900
C237        C  0.56921980  0.71492104  0.03771970     0.01800
C238        C  0.57347381  0.70235255  0.00552169    -0.10400
C239        C  0.57071767  0.71453727  0.47215247     0.04300
C240        C  0.56515207  0.74054078  0.47113916    -0.09800
H241        H  0.55917897  0.74977428  0.06138964     0.09900
H242        H  0.57662581  0.68149228  0.00641406     0.07400
H243        H  0.56249610  0.74962497  0.44532011     0.07200
C244        C  0.39582324  0.53101302  0.41998371     0.24800
C245        C  0.38115047  0.50072503  0.44022402    -0.23400
C246        C  0.38545878  0.47522635  0.42894035     0.19700
C247        C  0.40324454  0.47954195  0.39694793     0.24700
C248        C  0.41718924  0.50962883  0.37613542    -0.23300
C249        C  0.41347796  0.53539653  0.38825282     0.19600
F250        F  0.42664058  0.56494722  0.36934993    -0.13300
F251        F  0.39347391  0.55677013  0.43129617    -0.15600
F252        F  0.40690435  0.45442083  0.38656382    -0.15600
F253        F  0.37194963  0.44598654  0.44852131    -0.13300
C254        C  0.40740141  0.53350169  0.12484409     0.24800
C255        C  0.41072013  0.50755047  0.13757935    -0.23400
C256        C  0.39445182  0.47635749  0.11834444     0.19700
C257        C  0.37642133  0.47185556  0.08637327     0.24700
C258        C  0.37376078  0.49808304  0.07362283    -0.23300
C259        C  0.38895813  0.52868848  0.09334612     0.19600
F260        F  0.38725372  0.55467541  0.08119530    -0.13300
F261        F  0.42245344  0.56395333  0.14241713    -0.15600
F262        F  0.36170300  0.44199290  0.06771570    -0.15600
F263        F  0.39654652  0.45047732  0.12990106    -0.13300
C264        C  0.53894457  0.68120409  0.41731046     0.24800
C265        C  0.56883492  0.69684698  0.43859535    -0.23400
C266        C  0.59562788  0.69391644  0.42852471     0.19700
C267        C  0.59281488  0.67617193  0.39701804     0.24700
C268        C  0.56292514  0.66076577  0.37543345    -0.23300
C269        C  0.53590579  0.66327205  0.38619479     0.19600
F270        F  0.50629995  0.64839701  0.36670923    -0.13300
F271        F  0.51209588  0.68243709  0.42727541    -0.15600
F272        F  0.61904775  0.67364127  0.38805347    -0.15600
F273        F  0.62457201  0.70845282  0.44905797    -0.13300
C274        C  0.59364817  0.68241211  0.11694906     0.24800
C275        C  0.56254970  0.66392988  0.13650531    -0.23400
C276        C  0.53418482  0.66350014  0.12366683     0.19700
C277        C  0.53679103  0.68073442  0.09195386     0.24700
C278        C  0.56762464  0.69867795  0.07232818    -0.23300
C279        C  0.59602904  0.69941862  0.08494420     0.19600
F280        F  0.62606886  0.71664800  0.06620928    -0.13300
F281        F  0.62161089  0.68366848  0.12837693    -0.15600
F282        F  0.50869331  0.67884309  0.07963432    -0.15600
F283        F  0.50358728  0.64606934  0.14141392    -0.13300
C284        C  0.67116844  0.61585594  0.39255731     0.24800
C285        C  0.65259462  0.58421445  0.37399707    -0.23400
C286        C  0.65245376  0.55653303  0.38818478     0.19700
C287        C  0.66985437  0.56022537  0.42020996     0.24700
C288        C  0.68788935  0.59155765  0.43887347    -0.23300
C289        C  0.68847604  0.61937634  0.42490383     0.19600
F290        F  0.70624949  0.65005522  0.44231305    -0.13300
F291        F  0.67265786  0.64339705  0.37952737    -0.15600
F292        F  0.66852935  0.53280911  0.43347690    -0.15600
F293        F  0.63537624  0.52559930  0.37128739    -0.13300
C294        C  0.67187284  0.61650107  0.11774449     0.24800
C295        C  0.65447833  0.58534315  0.13720951    -0.23400
C296        C  0.65642065  0.55847002  0.12469384     0.19700
C297        C  0.67434212  0.56227827  0.09315619     0.24700
C298        C  0.69078757  0.59291878  0.07323978    -0.23300
C299        C  0.68964986  0.62012024  0.08584874     0.19600
F300        F  0.70584870  0.65019673  0.06731575    -0.13300
F301        F  0.67133208  0.64330243  0.12917174    -0.15600
F302        F  0.67453912  0.53537182  0.08127863    -0.15600
F303        F  0.64062234  0.52808361  0.14261131    -0.13300
C304        C  0.52466911  0.42069736  0.42579657     0.24800
C305        C  0.49173528  0.39892764  0.44070026    -0.23400
C306        C  0.46319685  0.39475595  0.42356774     0.19700
C307        C  0.46745277  0.41186138  0.39116430     0.24700
C308        C  0.50052948  0.43368772  0.37584340    -0.23300
C309        C  0.52913650  0.43805723  0.39367352     0.19600
F310        F  0.56152451  0.45913793  0.38024181    -0.13300
F311        F  0.55255033  0.42518837  0.44255251    -0.15600
F312        F  0.43914939  0.40662416  0.37469838    -0.15600
F313        F  0.43120234  0.37359817  0.43790590    -0.13300
C314        C  0.52478936  0.42783275  0.12373182     0.24800
C315        C  0.49823201  0.43002825  0.13680269    -0.23400
C316        C  0.46660587  0.41315019  0.11801055     0.19700
C317        C  0.46202531  0.39506913  0.08634570     0.24700
C318        C  0.48868248  0.39318622  0.07349352    -0.23300
C319        C  0.51992951  0.40941946  0.09244850     0.19600
F320        F  0.54628737  0.40849860  0.07984058    -0.13300
F321        F  0.55571334  0.44376136  0.14086293    -0.15600
F322        F  0.43167630  0.37948940  0.06813085    -0.15600
F323        F  0.44034696  0.41461888  0.12973653    -0.13300
C324        C  0.78568644  0.53705703  0.02068124     0.24800
C325        C  0.81556320  0.55568257  0.49929644    -0.23400
C326        C  0.82237323  0.58444641  0.47987677     0.19700
C327        C  0.79981188  0.59447276  0.48199667     0.24700
C328        C  0.77001911  0.57590398  0.50350720    -0.23300
C329        C  0.76310946  0.54701647  0.02271670     0.19600
F330        F  0.73389216  0.52774008  0.04258441    -0.13300
F331        F  0.77794426  0.50867124  0.03901029    -0.15600
F332        F  0.80741813  0.62277512  0.46359644    -0.15600
F333        F  0.85139780  0.60345627  0.45967953    -0.13300
C334        C  0.26294400  0.49222753  0.01494032     0.24800
C335        C  0.29592516  0.51361240  0.49987755    -0.23400
C336        C  0.30581713  0.54474919  0.48347503     0.19700
C337        C  0.28313902  0.55460796  0.48280300     0.24700
C338        C  0.25040256  0.53352979  0.49860564    -0.23300
C339        C  0.24029096  0.50210359  0.01430524     0.19600
F340        F  0.20821526  0.48071919  0.02836935    -0.13300
F341        F  0.25256297  0.46154484  0.02973506    -0.15600
F342        F  0.29338857  0.58510123  0.46756142    -0.15600
F343        F  0.33777899  0.56603921  0.46907430    -0.13300
C344        C  0.88984381  0.50233700  0.07531187     0.24800
C345        C  0.89174797  0.53189977  0.06521532    -0.23400
C346        C  0.90893852  0.56080631  0.08783231     0.19700
C347        C  0.92447607  0.56044912  0.11975211     0.24700
C348        C  0.92309594  0.53103872  0.12984253    -0.23300
C349        C  0.90517153  0.50178318  0.10750489     0.19600
F350        F  0.90303408  0.47287893  0.11632796    -0.13300
F351        F  0.87291050  0.47392179  0.05407784    -0.15600
F352        F  0.94089705  0.58908091  0.14069375    -0.15600
F353        F  0.91158007  0.58988352  0.07844889    -0.13300
C354        C  0.90682556  0.50206684  0.39037308     0.24800
C355        C  0.92291636  0.53048775  0.36680306    -0.23400
C356        C  0.92184544  0.55878555  0.37512920     0.19700
C357        C  0.90570297  0.55897607  0.40652814     0.24700
C358        C  0.89030965  0.53097313  0.43045328    -0.23300
C359        C  0.89081185  0.50240365  0.42200827     0.19600
F360        F  0.87578025  0.47480733  0.44444428    -0.13300
F361        F  0.90742710  0.47437599  0.38345190    -0.15600
F362        F  0.90632430  0.58724661  0.41424927    -0.15600
F363        F  0.93651365  0.58652639  0.35292573    -0.13300
C364        C  0.94160571  0.40418701  0.11334355     0.24800
C365        C  0.97351187  0.41735896  0.13037592    -0.23400
C366        C  0.99614099  0.41028550  0.11511493     0.19700
C367        C  0.98717501  0.39100263  0.08328927     0.24700
C368        C  0.95541457  0.37818614  0.06652584    -0.23300
C369        C  0.93273026  0.38483267  0.08178313     0.19600
F370        F  0.90218207  0.37324350  0.06542625    -0.13300
F371        F  0.91900188  0.41032190  0.12680914    -0.15600
F372        F  0.00936345  0.38468245  0.06893987    -0.15600
F373        F  0.02700776  0.42205504  0.13077026    -0.13300
C374        C  0.94285045  0.40669921  0.38524739     0.24800
C375        C  0.97635320  0.42311527  0.37105906    -0.23400
C376        C  0.00021057  0.41934519  0.38937523     0.19700
C377        C  0.99034966  0.39880597  0.42044094     0.24700
C378        C  0.95647193  0.38141231  0.43347712    -0.23300
C379        C  0.93301319  0.38590933  0.41588908     0.19600
F380        F  0.90062900  0.37078482  0.42903474    -0.13300
F381        F  0.91937240  0.41066522  0.36960757    -0.15600
F382        F  0.01375400  0.39559003  0.43758250    -0.15600
F383        F  0.03315580  0.43567077  0.37750963    -0.13300
C384        C  0.17283232  0.58458633  0.07335503     0.24800
C385        C  0.17375295  0.55641855  0.06427864    -0.24300
C386        C  0.15763239  0.52754746  0.08699633     0.19700
C387        C  0.14071044  0.52665957  0.11818424     0.24700
C388        C  0.13973777  0.55480770  0.12753374    -0.23300
C389        C  0.15607743  0.58387531  0.10481752     0.19600
F390        F  0.15518815  0.61127564  0.11250189    -0.13300
F391        F  0.18831776  0.61283894  0.05182660    -0.15600
F392        F  0.12536096  0.49811100  0.13923247    -0.15600
F393        F  0.15730083  0.49960214  0.07835275    -0.13300
C394        C  0.14331725  0.52708919  0.37549440     0.24800
C395        C  0.14310736  0.55559543  0.36554542    -0.23400
C396        C  0.15977829  0.58484669  0.38789927     0.19700
C397        C  0.17555826  0.58516809  0.42002431     0.24700
C398        C  0.17530258  0.55651284  0.43000924    -0.23300
C399        C  0.15930060  0.52759460  0.40739590     0.19600
F400        F  0.15812142  0.49929378  0.41681852    -0.13300
F401        F  0.12800128  0.49855653  0.35445138    -0.15600
F402        F  0.19116425  0.61347791  0.44140862    -0.15600
F403        F  0.16008296  0.61279841  0.37926402    -0.13300
C404        C  0.06648968  0.66661327  0.10895211     0.24800
C405        C  0.09165734  0.66800298  0.13082740    -0.23400
C406        C  0.12654266  0.68974169  0.12068315     0.19700
C407        C  0.13596729  0.70912324  0.08899054     0.24700
C408        C  0.11073091  0.70709297  0.06676474    -0.23300
C409        C  0.07595619  0.68581970  0.07709075     0.19600
F410        F  0.05109457  0.68346507  0.05613122    -0.13300
F411        F  0.03255567  0.64585677  0.11768730    -0.15600
F412        F  0.16969005  0.72877729  0.07923240    -0.15600
F413        F  0.15165591  0.69221520  0.14128632    -0.13300
C414        C  0.06421731  0.66096082  0.39037238     0.24800
C415        C  0.08972856  0.66240195  0.36918353    -0.23400
C416        C  0.12432535  0.68335823  0.38047235     0.19700
C417        C  0.13328233  0.70271958  0.41197518     0.24700
C418        C  0.10790865  0.70155290  0.43285830    -0.23300
C419        C  0.07328032  0.68029410  0.42208748     0.19600
F420        F  0.04835767  0.67869598  0.44196987    -0.13300
F421        F  0.03045156  0.64059946  0.38071853    -0.15600
F422        F  0.16684096  0.72224347  0.42248332    -0.15600
F423        F  0.14971044  0.68560138  0.36084318    -0.13300
C424        C  0.86112798  0.24598079  0.48091189     0.24800
C425        C  0.86715947  0.27514044  0.49854856    -0.23400
C426        C  0.83956025  0.27315081  0.01549657     0.19700
C427        C  0.80649176  0.24274131  0.01466160     0.24700
C428        C  0.80021336  0.21356199  0.49684458    -0.23300
C429        C  0.82784597  0.21533423  0.48011382     0.19600
F430        F  0.82267022  0.18727418  0.46354092    -0.13300
F431        F  0.88751627  0.24709378  0.46495654    -0.15600
F432        F  0.78026400  0.24219566  0.03023932    -0.15600
F433        F  0.84441712  0.30116236  0.03187437    -0.13300
C434        C  0.48908983  0.25950227  0.47665838     0.24800
C435        C  0.51682420  0.26407739  0.49648253    -0.23400
C436        C  0.53619139  0.29285252  0.01919613     0.19700
C437        C  0.52785627  0.31650750  0.02221715     0.24700
C438        C  0.50007639  0.31184123  0.50248589    -0.23300
C439        C  0.48080609  0.28323833  0.47964077     0.19600
F440        F  0.45355801  0.27800361  0.46071161    -0.13300
F441        F  0.46938118  0.23155315  0.45521794    -0.15600
F442        F  0.54764586  0.34456815  0.04352795    -0.15600
F443        F  0.56370608  0.29846551  0.03789870    -0.13300
C444        C  0.67057474  0.09536376  0.07022326     0.24800
C445        C  0.68932445  0.12981418  0.05905824    -0.23400
C446        C  0.68780371  0.15363297  0.07976828     0.19700
C447        C  0.66798631  0.14329365  0.11121237     0.24700
C448        C  0.64948276  0.10886744  0.12288976    -0.23300
C449        C  0.65104373  0.08498553  0.10200794     0.19600
F450        F  0.63342730  0.05148476  0.11201852    -0.13300
F451        F  0.67162279  0.07187622  0.05060772    -0.15600
F452        F  0.66724062  0.16721162  0.13029909    -0.15600
F453        F  0.70503914  0.18693698  0.06908410    -0.13300
C454        C  0.65301125  0.08430355  0.38407003     0.24800
C455        C  0.65426368  0.10857047  0.36091137    -0.23400
C456        C  0.67680733  0.14370906  0.36940660     0.19700
C457        C  0.69684971  0.15430258  0.40083851     0.24700
C458        C  0.69472912  0.13002119  0.42460970    -0.23300
C459        C  0.67290055  0.09494132  0.41572373     0.19600
F460        F  0.67062841  0.07092109  0.43790779    -0.13300
F461        F  0.63164047  0.05017376  0.37684670    -0.15600
F462        F  0.71718702  0.18832838  0.40884729    -0.15600
F463        F  0.67944535  0.16799033  0.34736183    -0.13300
C464        C  0.50708093  0.15316045  0.11559467     0.24800
C465        C  0.53574720  0.15290383  0.12508924    -0.23400
C466        C  0.56457003  0.16887883  0.10200722     0.19700
C467        C  0.56434575  0.18416631  0.06974932     0.24700
C468        C  0.53552214  0.18399887  0.06029508    -0.23300
C469        C  0.50701321  0.16857332  0.08354204     0.19600
F470        F  0.47866744  0.16773977  0.07477505    -0.13300
F471        F  0.47905850  0.13869705  0.13740730    -0.15600
F472        F  0.59240846  0.19949585  0.04791454    -0.15600
F473        F  0.59266894  0.16910944  0.11016474    -0.13300
C474        C  0.56594525  0.17330228  0.38375808     0.24800
C475        C  0.53599855  0.15419618  0.36231129    -0.23400
C476        C  0.50631470  0.15229909  0.37273857     0.19700
C477        C  0.50646799  0.16861770  0.40413209     0.24700
C478        C  0.53607087  0.18682785  0.42587863    -0.23300
C479        C  0.56586651  0.18931678  0.41538178     0.19600
F480        F  0.59487138  0.20721963  0.43590867    -0.13300
F481        F  0.59505160  0.17577271  0.37477570    -0.15600
F482        F  0.47724220  0.16558017  0.41403758    -0.15600
F483        F  0.47692250  0.13446487  0.35278536    -0.13300
C484        C  0.25036325  0.84876870  0.47058524     0.24800
C485        C  0.25548714  0.87639181  0.49073589    -0.23400
C486        C  0.22820400  0.87140003  0.01169570     0.19700
C487        C  0.19661135  0.83909038  0.01306607     0.24700
C488        C  0.19183834  0.81142670  0.49332286    -0.23300
C489        C  0.21898234  0.81668851  0.47194398     0.19600
F490        F  0.21585458  0.79020662  0.45384862    -0.13300
F491        F  0.27644322  0.85218089  0.45117009    -0.15600
F492        F  0.17075255  0.83478963  0.03368836    -0.15600
F493        F  0.23222810  0.89776521  0.03092793    -0.13300
C494        C  0.40123018  0.00700469  0.10311258     0.24800
C495        C  0.39836623  0.98286821  0.12769453    -0.23400
C496        C  0.37488656  0.94762796  0.12035034     0.19700
C497        C  0.35576187  0.93671523  0.08833505     0.24700
C498        C  0.35958890  0.96086005  0.06304526    -0.23300
C499        C  0.38209196  0.99608138  0.07103603     0.19600
F500        F  0.38573858  0.01998149  0.04759307    -0.13300
F501        F  0.42353281  0.04122302  0.10935214    -0.15600
F502        F  0.33466205  0.90249363  0.08143241    -0.15600
F503        F  0.37048267  0.92359403  0.14411224    -0.13300
C504        C  0.38690482  0.99777816  0.41973125     0.24800
C505        C  0.36513093  0.96266330  0.42838623    -0.23400
C506        C  0.36407018  0.93857656  0.40540266     0.19700
C507        C  0.38413096  0.94926307  0.37421389     0.24700
C508        C  0.40568012  0.98432943  0.36518432    -0.23300
C509        C  0.40696634  0.00855705  0.38832248     0.19600
F510        F  0.42807472  0.04269814  0.38099694    -0.13300
F511        F  0.38841578  0.02158296  0.44147196    -0.15600
F512        F  0.38204714  0.92506278  0.35265537    -0.15600
F513        F  0.34416365  0.90457519  0.41360803    -0.13300
C514        C  0.57493304  0.81052152  0.48323387     0.24800
C515        C  0.55306430  0.77935120  0.50174919    -0.23400
C516        C  0.52306159  0.77267754  0.01819873     0.19700
C517        C  0.51515187  0.79685064  0.01628423     0.24700
C518        C  0.53696943  0.82797845  0.99768399    -0.23300
C519        C  0.56696591  0.83465061  0.48123114     0.19600
F520        F  0.58890387  0.86486350  0.46384591    -0.13300
F521        F  0.60433961  0.81782108  0.46763378    -0.15600
F522        F  0.48565146  0.78946517  0.03171310    -0.15600
F523        F  0.50085350  0.74226319  0.03513746    -0.13300
C524        C  0.54764070  0.94690866  0.10832173     0.24800
C525        C  0.51749545  0.94338694  0.12023375    -0.23400
C526        C  0.48699539  0.92302074  0.09975353     0.19700
C527        C  0.48659290  0.90599916  0.06863975     0.24700
C528        C  0.51651133  0.90887764  0.05766666    -0.23300
C529        C  0.54702075  0.92965349  0.07755133     0.19600
F530        F  0.57654315  0.93377505  0.06669214    -0.13300
F531        F  0.57790547  0.96690764  0.12647779    -0.15600
F532        F  0.45689913  0.88631558  0.04946709    -0.15600
F533        F  0.45766128  0.91979348  0.10951406    -0.13300
C534        C  0.54391083  0.91742202  0.40014853     0.24800
C535        C  0.51548093  0.90235484  0.42354357    -0.23400
C536        C  0.48696093  0.90274624  0.41399093     0.19700
C537        C  0.48728983  0.91888498  0.38214467     0.24700
C538        C  0.51636149  0.93525158  0.35939660    -0.23300
C539        C  0.54442803  0.93382477  0.36848107     0.19600
F540        F  0.57259379  0.94850053  0.34686589    -0.13300
F541        F  0.57191112  0.91760018  0.40874342    -0.15600
F542        F  0.45961358  0.91949392  0.37434914    -0.15600
F543        F  0.45883648  0.88768042  0.43572207    -0.13300
C544        C  0.52833153  0.85334420  0.49529029     0.04300
C545        C  0.52468466  0.86437290  0.96143844    -0.11900
C546        C  0.51674786  0.88862463  0.95902638     0.01800
C547        C  0.51239688  0.90176446  0.99081789    -0.10400
C548        C  0.51671402  0.89152901  0.52471100     0.04300
C549        C  0.52444571  0.86713480  0.52684671    -0.09800
H550        H  0.52797503  0.85405825  0.93699504     0.09900
H551        H  0.50743755  0.92135031  0.98918890     0.07400
H552        H  0.52820493  0.85949106  0.55303637     0.07200
C553        C  0.29028234  0.90904124  0.99227461     0.04300
C554        C  0.30912151  0.92413495  0.96044029    -0.11900
C555        C  0.34432516  0.95086631  0.96185826     0.01800
C556        C  0.36034595  0.96355014  0.99553547    -0.10400
C557        C  0.34159625  0.94939855  0.52768171     0.04300
C558        C  0.30647824  0.92232409  0.52578116    -0.09800
H559        H  0.29674099  0.91397818  0.93446698     0.09900
H560        H  0.38786409  0.98312982  0.99672818     0.07400
H561        H  0.29214597  0.91049497  0.55043890     0.07200
N562        N  0.60263929  0.09743496  0.78528180    -0.05000
N563        N  0.62274499  0.11684663  0.81221616    -0.57100
N564        N  0.59895375  0.06891637  0.70147850    -0.04600
N565        N  0.61520671  0.06758665  0.67332399    -0.59200
N566        N  0.60209738  0.09824511  0.70198289    -0.04200
N567        N  0.62063472  0.11749030  0.67422906    -0.57100
N568        N  0.59941237  0.06802964  0.78499007    -0.03900
N569        N  0.61713054  0.06680613  0.81185544    -0.59600
C570        C  0.63163354  0.09747498  0.82861709     0.97200
C571        C  0.62869773  0.09809172  0.65651445     0.97000
N572        N  0.50309633  0.97470167  0.70022109    -0.05100
N573        N  0.49013512  0.95475867  0.67134135    -0.57700
N574        N  0.53722190  0.98976351  0.78378036    -0.03300
N575        N  0.54753426  0.97904856  0.81031766    -0.58900
N576        N  0.50347134  0.97292364  0.78398159    -0.05200
N577        N  0.49015245  0.95053799  0.81081586    -0.57900
N578        N  0.53687416  0.99168731  0.70056167    -0.02900
N579        N  0.54753162  0.98367485  0.67211364    -0.59000
Mn580      Mn  0.56884671  0.02925845  0.74281414     1.18400
C581        C  0.51823938  0.96061199  0.65402459     0.99300
C582        C  0.51792790  0.95455207  0.82700997     1.00000
N583        N  0.54994102  0.11888702  0.70277073    -0.05200
N584        N  0.56294026  0.14015856  0.67496629    -0.61500
N585        N  0.51650188  0.10156521  0.78577151    -0.04000
N586        N  0.50585675  0.11141230  0.81258136    -0.62200
N587        N  0.55026720  0.11855203  0.78623381    -0.04700
N588        N  0.56327286  0.14036445  0.81359425    -0.61800
N589        N  0.51615802  0.10187857  0.70308215    -0.03600
N590        N  0.50549976  0.11130635  0.67571697    -0.62500
Mn591      Mn  0.57724358  0.10952611  0.74416987     1.10700
C592        C  0.53488433  0.13520724  0.65839145     1.00500
C593        C  0.53519618  0.13562532  0.82979172     1.00600
N594        N  0.45215787  0.99466362  0.78577751    -0.04700
N595        N  0.43416538  0.97566597  0.81383832    -0.60100
N596        N  0.45367046  0.02413120  0.70288257    -0.04000
N597        N  0.43555172  0.02504958  0.67627217    -0.56800
N598        N  0.45043998  0.99475847  0.70277707    -0.05300
N599        N  0.42992665  0.97499083  0.67629136    -0.59700
N600        N  0.45524905  0.02398562  0.78628284    -0.04300
N601        N  0.43955326  0.02559423  0.81479919    -0.56800
Mn602      Mn  0.47633135  0.98302892  0.74317710     1.20200
Mn603      Mn  0.48466586  0.06319089  0.74444325     1.10100
Cl604      Cl  0.52678828  0.04626776  0.74371018    -0.84800
C605        C  0.42644814  0.99523208  0.83173582     0.97500
C606        C  0.42080101  0.99415516  0.65996637     0.97300
C607        C  0.52469866  0.23821830  0.99483895     0.04300
C608        C  0.52803758  0.22626351  0.96158824    -0.11900
C609        C  0.53502323  0.20131083  0.96060237     0.01800
C610        C  0.53882779  0.18844104  0.99300093    -0.10400
C611        C  0.53486104  0.19977220  0.52625100     0.04300
C612        C  0.52796459  0.22470572  0.52698966    -0.09800
H613        H  0.52529682  0.23634032  0.93653914     0.09900
H614        H  0.54330519  0.16848948  0.99229623     0.07400
H615        H  0.52447636  0.23312438  0.55274138     0.07200
C616        C  0.76455675  0.18196741  0.49512609     0.04300
C617        C  0.74841241  0.16816888  0.96162386    -0.11900
C618        C  0.71310863  0.14124283  0.95984353     0.01800
C619        C  0.69431024  0.12756808  0.99205290    -0.10400
C620        C  0.71015952  0.14115784  0.52562382     0.04300
C621        C  0.74530221  0.16805775  0.52696916    -0.09800
H622        H  0.76288400  0.17946189  0.93691926     0.09900
H623        H  0.66682640  0.10779948  0.99093278     0.07400
H624        H  0.75744093  0.17894081  0.55287444     0.07200
N625        N  0.05258101  0.61300910  0.78995740    -0.05000
N626        N  0.04997763  0.62825264  0.81814979    -0.57100
N627        N  0.08248183  0.61814366  0.70683598    -0.04600
N628        N  0.10168843  0.63835044  0.67993952    -0.59200
N629        N  0.05252055  0.61390842  0.70695549    -0.04200
N630        N  0.05066400  0.63107047  0.68007762    -0.57100
N631        N  0.08258923  0.61732016  0.78987565    -0.03900
N632        N  0.10109496  0.63571612  0.81806996    -0.59600
C633        C  0.08040407  0.64235554  0.83546324     0.97200
C634        C  0.08152413  0.64623621  0.66344529     0.97000
N635        N  0.08894039  0.53406122  0.70602194    -0.05100
N636        N  0.09839231  0.52391494  0.67834609    -0.57700
N637        N  0.10644292  0.56794034  0.78897997    -0.03300
N638        N  0.12835711  0.58154911  0.81629824    -0.58900
N639        N  0.09020461  0.53440928  0.78878947    -0.05200
N640        N  0.10071760  0.52445793  0.81575018    -0.57900
N641        N  0.10514594  0.56763717  0.70554624    -0.02900
N642        N  0.12591200  0.58098818  0.67734345    -0.59000
Mn643      Mn  0.09546267  0.59381648  0.74777965     1.18400
C644        C  0.12146139  0.55336269  0.66063564     0.99300
C645        C  0.12452661  0.55405134  0.83269869     1.00000
N646        N  0.97525669  0.55063517  0.70716752    -0.05200
N647        N  0.96514947  0.56102199  0.68023785    -0.61500
N648        N  0.95907009  0.51703773  0.79041456    -0.04000
N649        N  0.93749372  0.50377520  0.81803523    -0.62200
N650        N  0.97545240  0.55060334  0.78988015    -0.04700
N651        N  0.96535251  0.56086451  0.81682505    -0.61800
N652        N  0.95881826  0.51703638  0.70662747    -0.03600
N653        N  0.93713738  0.50390640  0.67899032    -0.62500
Mn654      Mn  0.01365261  0.58269096  0.74843244     1.10700
C655        C  0.94134929  0.53174657  0.66281550     1.00500
C656        C  0.94165686  0.53150606  0.83423656     1.00600
N657        N  0.01305758  0.47184897  0.79070307    -0.04700
N658        N  0.01601006  0.45703788  0.81932228    -0.60100
N659        N  0.98207949  0.46641967  0.70714911    -0.04000
N660        N  0.96306392  0.44657320  0.67986735    -0.56800
N661        N  0.01200309  0.47056454  0.70736648    -0.05300
N662        N  0.01398492  0.45372514  0.68036656    -0.59700
N663        N  0.98310481  0.46768477  0.79079321    -0.04300
N664        N  0.96512216  0.44995290  0.81948503    -0.56800
Mn665      Mn  0.05135108  0.50197705  0.74820527     1.20200
Mn666      Mn  0.96940615  0.49087080  0.74863872     1.10100
Cl667      Cl  0.03244303  0.54231871  0.74814674    -0.84800
C668        C  0.98589035  0.44341689  0.83712076     0.97500
C669        C  0.98329004  0.43879613  0.66335472     0.97300
C670        C  0.22653678  0.54396471  0.99821477     0.04300
C671        C  0.21485994  0.54821562  0.96526545    -0.11900
C672        C  0.19047951  0.55601293  0.96459343     0.01800
C673        C  0.17838727  0.56037813  0.99714160    -0.10400
C674        C  0.18981317  0.55604237  0.53030316     0.04300
C675        C  0.21403070  0.54794202  0.53068068    -0.09800
H676        H  0.22394998  0.54442069  0.94014763     0.09900
H677        H  0.15862924  0.56521569  0.99664471     0.07400
H678        H  0.22276221  0.54422930  0.55620170     0.07200
C679        C  0.90167707  0.30820372  0.99869175     0.04300
C680        C  0.91653296  0.32603406  0.96624789    -0.11900
C681        C  0.94569889  0.36033225  0.96673314     0.01800
C682        C  0.96064080  0.37629061  0.99992756    -0.10400
C683        C  0.94570173  0.35879473  0.53241192     0.04300
C684        C  0.91670520  0.32465897  0.53164108    -0.09800
H685        H  0.90394169  0.31416597  0.94078871     0.09900
H686        H  0.98178475  0.40329819  0.00056461     0.07400
H687        H  0.90436246  0.31171128  0.55679794     0.07200
C688        C  0.84010746  0.54578823  0.99844642     0.04300
C689        C  0.85173136  0.54128510  0.96551580    -0.11900
C690        C  0.87562942  0.53267643  0.96504012     0.01800
C691        C  0.88758201  0.52827599  0.99787706    -0.10400
C692        C  0.87649103  0.53313555  0.53086283     0.04300
C693        C  0.85270873  0.54173634  0.53095704    -0.09800
H694        H  0.84224157  0.54450940  0.94027433     0.09900
H695        H  0.90684412  0.52276122  0.99777167     0.07400
H696        H  0.84453519  0.54597571  0.55645961     0.07200
C697        C  0.15952141  0.77655890  0.99593672     0.04300
C698        C  0.14396250  0.75755022  0.96436407    -0.11900
C699        C  0.11809452  0.72230831  0.96605980     0.01800
C700        C  0.10589363  0.70636166  0.99973247    -0.10400
C701        C  0.12052731  0.72524368  0.53168152     0.04300
C702        C  0.14728277  0.76042567  0.52963448    -0.09800
H703        H  0.15358879  0.76973124  0.93823853     0.09900
H704        H  0.08678496  0.67881718  0.00106539     0.07400
H705        H  0.15978574  0.77471020  0.55416259     0.07200
N706        N  0.49568600  0.47222470  0.71364338    -0.05000
N707        N  0.47920087  0.45120540  0.68630343    -0.57100
N708        N  0.52884118  0.48357010  0.79621452    -0.04600
N709        N  0.53585171  0.47148476  0.82428375    -0.59200
N710        N  0.49620157  0.47226659  0.79631431    -0.04200
N711        N  0.48031163  0.45227316  0.82450562    -0.57100
N712        N  0.52831728  0.48348291  0.71357526    -0.03900
N713        N  0.53473705  0.47033318  0.68624170    -0.59600
C714        C  0.50391367  0.45025120  0.66946847     0.97200
C715        C  0.50537566  0.45198451  0.84170113     0.97000
N716        N  0.60973175  0.58740816  0.79651081    -0.05100
N717        N  0.63065103  0.60370055  0.82426685    -0.57700
N718        N  0.59942323  0.55539237  0.71335699    -0.03300
N719        N  0.61384603  0.54948356  0.68688281    -0.58900
N720        N  0.60946638  0.58755961  0.71282398    -0.05200
N721        N  0.63102551  0.60417187  0.68567453    -0.57900
N722        N  0.59968363  0.55525635  0.79595161    -0.02900
N723        N  0.61346922  0.54902352  0.82299346    -0.59000
Mn724      Mn  0.56455785  0.51890966  0.75471936     1.18400
C725        C  0.63278754  0.57933971  0.84055186     0.99300
C726        C  0.63354092  0.57999425  0.66970689     1.00000
N727        N  0.45702364  0.50691908  0.79680263    -0.05200
N728        N  0.43752653  0.49058133  0.82525872    -0.61500
N729        N  0.46589362  0.53888259  0.71373244    -0.04000
N730        N  0.45130687  0.54443623  0.68694813    -0.62200
N731        N  0.45608769  0.50683100  0.71355766    -0.04700
N732        N  0.43461738  0.48987343  0.68647000    -0.61800
N733        N  0.46676605  0.53892991  0.79644481    -0.03600
N734        N  0.45412604  0.54511865  0.82445308    -0.62500
Mn735      Mn  0.47511016  0.48833860  0.75501716     1.10700
C736        C  0.43592217  0.51483203  0.84223385     1.00500
C737        C  0.43182657  0.51371066  0.67010111     1.00600
N738        N  0.56920247  0.62278181  0.71314985    -0.04700
N739        N  0.58457985  0.64397756  0.68549253    -0.60100
N740        N  0.53676525  0.61045038  0.79630201    -0.04000
N741        N  0.52914149  0.62210757  0.82404456    -0.56800
N742        N  0.56953114  0.62214030  0.79691634    -0.05300
N743        N  0.58486738  0.64208664  0.82544249    -0.59700
N744        N  0.53640144  0.61098814  0.71386008    -0.04300
N745        N  0.52882145  0.62380948  0.68707068    -0.56800
Mn746      Mn  0.59083505  0.60643707  0.75477481     1.20200
Mn747      Mn  0.50102958  0.57533375  0.75499072     1.10100
Cl748      Cl  0.53297074  0.54731976  0.75473789    -0.84800
C749        C  0.55896127  0.64436980  0.66949279     0.97500
C750        C  0.55922756  0.64183082  0.84206231     0.97300
C751        C  0.49246397  0.33780093  0.00420984     0.04300
C752        C  0.48916660  0.34950933  0.53755053    -0.11900
C753        C  0.48537790  0.37662119  0.53892832     0.01800
C754        C  0.48389651  0.39143451  0.50692082    -0.10400
C755        C  0.48745841  0.37995979  0.97370352     0.04300
C756        C  0.49157534  0.35314451  0.97232926    -0.09800
H757        H  0.49083290  0.33846907  0.56244509     0.09900
H758        H  0.48245855  0.41338639  0.50794922     0.07400
H759        H  0.49571125  0.34536312  0.94650571     0.07200
C760        C  0.32044237  0.50402238  0.00221534     0.04300
C761        C  0.33142267  0.50040496  0.53600458    -0.11900
C762        C  0.35762641  0.49512001  0.53843507     0.01800
C763        C  0.37220672  0.49255688  0.50679199    -0.10400
C764        C  0.36151910  0.49647231  0.97297647     0.04300
C765        C  0.33522688  0.50160530  0.97083502    -0.09800
H766        H  0.32093108  0.50355443  0.56041550     0.09900
H767        H  0.39372065  0.49035327  0.50858318     0.07400
H768        H  0.32729105  0.50519699  0.94471376     0.07200
C769        C  0.74534360  0.58561323  0.00459775     0.04300
C770        C  0.73324867  0.58915523  0.53767789    -0.11900
C771        C  0.70753885  0.59527901  0.53857624     0.01800
C772        C  0.69440699  0.59859048  0.00597150    -0.10400
C773        C  0.70597150  0.59458419  0.97278970     0.04300
C774        C  0.73165312  0.58851064  0.97230665    -0.09800
H775        H  0.74305780  0.58610199  0.56279240     0.09900
H776        H  0.67345182  0.60169012  0.50645314     0.07400
H777        H  0.73974019  0.58433062  0.94670854     0.07200
C778        C  0.56111075  0.75351207  0.00321100     0.04300
C779        C  0.56295504  0.74041429  0.53648648    -0.11900
C780        C  0.56922031  0.71492037  0.53772291     0.01800
C781        C  0.57347574  0.70235327  0.50552463    -0.10400
C782        C  0.57071434  0.71453508  0.97214915     0.04300
C783        C  0.56514906  0.74053882  0.97113523    -0.09800
H784        H  0.55918001  0.74977361  0.56139379     0.09900
H785        H  0.57662773  0.68149294  0.50641630     0.07400
H786        H  0.56249278  0.74962262  0.94531604     0.07200
C787        C  0.39593254  0.53105254  0.92006763     0.24800
C788        C  0.38116483  0.50071719  0.94024084    -0.23400
C789        C  0.38537806  0.47517071  0.92889586     0.19700
C790        C  0.40316161  0.47948760  0.89690122     0.24700
C791        C  0.41720205  0.50962512  0.87615104    -0.23300
C792        C  0.41359123  0.53544158  0.88833796     0.19600
F793        F  0.42685757  0.56504700  0.86950666    -0.13300
F794        F  0.39366534  0.55684520  0.93144322    -0.15600
F795        F  0.40671607  0.45431289  0.88644908    -0.15600
F796        F  0.37177417  0.44588350  0.94841653    -0.13300
C797        C  0.40740164  0.53350483  0.62484333     0.24800
C798        C  0.41071972  0.50755220  0.63757527    -0.23400
C799        C  0.39445449  0.47636216  0.61833536     0.19700
C800        C  0.37642771  0.47186473  0.58636260     0.24700
C801        C  0.37376767  0.49809359  0.57361593    -0.23300
C802        C  0.38896197  0.52869593  0.59334381     0.19600
F803        F  0.38725651  0.55468329  0.58119696    -0.13300
F804        F  0.42244996  0.56395337  0.64242189    -0.15600
F805        F  0.36171151  0.44200471  0.56770049    -0.15600
F806        F  0.39654816  0.45048057  0.62988903    -0.13300
C807        C  0.53894274  0.68120574  0.91730429     0.24800
C808        C  0.56883083  0.69684364  0.93859254    -0.23400
C809        C  0.59562054  0.69390663  0.92852590     0.19700
C810        C  0.59280662  0.67616055  0.89702032     0.24700
C811        C  0.56291941  0.66075966  0.87543251    -0.23300
C812        C  0.53590332  0.66327260  0.88618935     0.19600
F813        F  0.50630031  0.64840338  0.86669978    -0.13300
F814        F  0.51209662  0.68244448  0.92726516    -0.15600
F815        F  0.61903591  0.67362292  0.88806007    -0.15600
F816        F  0.62456242  0.70843804  0.94906209    -0.13300
C817        C  0.59364502  0.68240913  0.61695304     0.24800
C818        C  0.56254579  0.66392658  0.63650802    -0.23400
C819        C  0.53418153  0.66349740  0.62366856     0.19700
C820        C  0.53678895  0.68073216  0.59195549     0.24700
C821        C  0.56762331  0.69867581  0.57233095    -0.23300
C822        C  0.59602715  0.69941616  0.58494821     0.19600
F823        F  0.62606771  0.71664586  0.56621459    -0.13300
F824        F  0.62160742  0.68366552  0.62838223    -0.15600
F825        F  0.50869178  0.67884125  0.57963478    -0.15600
F826        F  0.50358356  0.64606670  0.64141482    -0.13300
C827        C  0.67116633  0.61585142  0.89255325     0.24800
C828        C  0.65258688  0.58420745  0.87399772    -0.23400
C829        C  0.65244093  0.55652459  0.88819018     0.19700
C830        C  0.66984276  0.56021836  0.92021492     0.24700
C831        C  0.68788346  0.59155324  0.93887346    -0.23300
C832        C  0.68847477  0.61937312  0.92489950     0.19600
F833        F  0.70625374  0.65005437  0.94230409    -0.13300
F834        F  0.67266097  0.64339393  0.87951863    -0.15600
F835        F  0.66851375  0.53280127  0.93348621    -0.15600
F836        F  0.63535723  0.52558817  0.87129797    -0.13300
C837        C  0.67187252  0.61649964  0.61774600     0.24800
C838        C  0.65447519  0.58534033  0.63720880    -0.23400
C839        C  0.65641596  0.55846671  0.62469129     0.19700
C840        C  0.67433893  0.56227597  0.59315446     0.24700
C841        C  0.69078738  0.59291792  0.57324038    -0.23300
C842        C  0.68965096  0.62011979  0.58585089     0.19600
F843        F  0.70585246  0.65019760  0.56732004    -0.13300
F844        F  0.67133335  0.64330151  0.62917492    -0.15600
F845        F  0.67453449  0.53536911  0.58127532    -0.15600
F846        F  0.64061460  0.52807877  0.64260615    -0.13300
C847        C  0.52466328  0.42069451  0.92579639     0.24800
C848        C  0.49173018  0.39892813  0.94070280    -0.23400
C849        C  0.46319202  0.39475862  0.92357201     0.19700
C850        C  0.46744736  0.41186217  0.89116723     0.24700
C851        C  0.50052325  0.43368433  0.87584314    -0.23300
C852        C  0.52913007  0.43805227  0.89367195     0.19600
F853        F  0.56151737  0.45912909  0.88023738    -0.13300
F854        F  0.55254446  0.42518406  0.94255079    -0.15600
F855        F  0.43914418  0.40662719  0.87470320    -0.15600
F856        F  0.43119820  0.37360442  0.93791288    -0.13300
C857        C  0.52478641  0.42782725  0.62373066     0.24800
C858        C  0.49822954  0.43002475  0.63679887    -0.23400
C859        C  0.46660476  0.41314868  0.61800443     0.19700
C860        C  0.46202496  0.39506738  0.58634006     0.24700
C861        C  0.48868163  0.39318248  0.57349051    -0.23300
C862        C  0.51992735  0.40941384  0.59244770     0.19600
F863        F  0.54628490  0.40849130  0.57984214    -0.13300
F864        F  0.55570919  0.44375407  0.64086396    -0.15600
F865        F  0.43167724  0.37948941  0.56812303    -0.15600
F866        F  0.44034659  0.41461981  0.62972761    -0.13300
C867        C  0.78568584  0.53705423  0.52067950     0.24800
C868        C  0.81556299  0.55568458  0.99929694    -0.23400
C869        C  0.82237136  0.58444666  0.97987479     0.19700
C870        C  0.79980915  0.59447202  0.98199353     0.24700
C871        C  0.77001725  0.57590399  0.00350526    -0.23300
C872        C  0.76310964  0.54701464  0.52271614     0.19600
F873        F  0.73389147  0.52773745  0.54258239    -0.13300
F874        F  0.77794230  0.50866690  0.53900626    -0.15600
F875        F  0.80741375  0.62277277  0.96359114    -0.15600
F876        F  0.85139498  0.60345567  0.95967599    -0.13300
C877        C  0.26293256  0.49222640  0.51494736     0.24800
C878        C  0.29593535  0.51361548  0.99986749    -0.23400
C879        C  0.30582110  0.54474877  0.98346092     0.19700
C880        C  0.28313912  0.55460312  0.98279048     0.24700
C881        C  0.25040502  0.53352410  0.99859848    -0.23300
C882        C  0.24028290  0.50210667  0.51431033     0.19600
F883        F  0.20820504  0.48072391  0.52837010    -0.13300
F884        F  0.25254699  0.46154173  0.52974015    -0.15600
F885        F  0.29338302  0.58509356  0.96754587    -0.15600
F886        F  0.33778074  0.56604030  0.96905571    -0.13300
C887        C  0.88984191  0.50233506  0.57531335     0.24800
C888        C  0.89174827  0.53189844  0.56521446    -0.23400
C889        C  0.90894068  0.56080629  0.58782951     0.19700
C890        C  0.92447783  0.56044975  0.61974991     0.24700
C891        C  0.92309544  0.53103866  0.62984284    -0.23300
C892        C  0.90516919  0.50178187  0.60750702     0.19600
F893        F  0.90302914  0.47287676  0.61633268    -0.13300
F894        F  0.87290665  0.47391862  0.55408121    -0.15600
F895        F  0.94090059  0.58908281  0.64068962    -0.15600
F896        F  0.91158416  0.58988397  0.57844365    -0.13300
C897        C  0.90682147  0.50206597  0.89037322     0.24800
C898        C  0.92291411  0.53048754  0.86680407    -0.23400
C899        C  0.92184514  0.55878639  0.87513096     0.19700
C900        C  0.90570302  0.55897735  0.90652990     0.24700
C901        C  0.89030813  0.53097382  0.93045425    -0.23300
C902        C  0.89080815  0.50240326  0.92200849     0.19600
F903        F  0.87577499  0.47480646  0.94444392    -0.13300
F904        F  0.90742101  0.47437408  0.88345127    -0.15600
F905        F  0.90632626  0.58724881  0.91425190    -0.15600
F906        F  0.93651503  0.58652790  0.85292831    -0.13300
C907        C  0.94160444  0.40419089  0.61334095     0.24800
C908        C  0.97351010  0.41736161  0.63037399    -0.23400
C909        C  0.99613884  0.41028753  0.61511318     0.19700
C910        C  0.98717271  0.39100473  0.58328746     0.24700
C911        C  0.95541266  0.37818914  0.56652364    -0.23300
C912        C  0.93272895  0.38483675  0.58178033     0.19600
F913        F  0.90218113  0.37324835  0.56542299    -0.13300
F914        F  0.91900114  0.41032668  0.62680613    -0.15600
F915        F  0.00936049  0.38468343  0.56893852    -0.15600
F916        F  0.02700527  0.42205619  0.63076885    -0.13300
C917        C  0.94285023  0.40670028  0.88524952     0.24800
C918        C  0.97635305  0.42311722  0.87106117    -0.23400
C919        C  0.00021145  0.41934907  0.88937796     0.19700
C920        C  0.99035125  0.39881016  0.92044382     0.24700
C921        C  0.95647319  0.38141472  0.93347946    -0.23300
C922        C  0.93301365  0.38591059  0.91589132     0.19600
F923        F  0.90062927  0.37078497  0.92903681    -0.13300
F924        F  0.91937142  0.41066505  0.86960946    -0.15600
F925        F  0.01375660  0.39559607  0.93758590    -0.15600
F926        F  0.03315695  0.43567614  0.87751270    -0.13300
C927        C  0.17283175  0.58459301  0.57335797     0.24800
C928        C  0.17374970  0.55642450  0.56427798    -0.24300
C929        C  0.15762581  0.52755065  0.58699175     0.19700
C930        C  0.14070361  0.52666102  0.61818006     0.24700
C931        C  0.13973410  0.55481020  0.62753370    -0.23300
C932        C  0.15607666  0.58388033  0.60482093     0.19600
F933        F  0.15519080  0.61128196  0.61250958    -0.13300
F934        F  0.18832056  0.61284809  0.55183300    -0.15600
F935        F  0.12535130  0.49811000  0.63922477    -0.15600
F936        F  0.15729211  0.49960486  0.57834427    -0.13300
C937        C  0.14331020  0.52708122  0.87549505     0.24800
C938        C  0.14310283  0.55558914  0.86554690    -0.23400
C939        C  0.15977590  0.58484010  0.88790117     0.19700
C940        C  0.17555589  0.58515984  0.92002549     0.24700
C941        C  0.17529793  0.55650308  0.93000939    -0.23300
C942        C  0.15929357  0.52758498  0.90739582     0.19600
F943        F  0.15811231  0.49928285  0.91681741    -0.13300
F944        F  0.12799191  0.49854852  0.85445187    -0.15600
F945        F  0.19116441  0.61346963  0.94140996    -0.15600
F946        F  0.16008284  0.61279327  0.87926691    -0.13300
C947        C  0.06648777  0.66661380  0.60895381     0.24800
C948        C  0.09165491  0.66799934  0.63082621    -0.23400
C949        C  0.12653962  0.68973307  0.62067800     0.19700
C950        C  0.13596404  0.70911446  0.58898530     0.24700
C951        C  0.11072822  0.70708882  0.56676297    -0.23300
C952        C  0.07595413  0.68581981  0.57709197     0.19600
F953        F  0.05109311  0.68346931  0.55613520    -0.13300
F954        F  0.03255433  0.64586229  0.61769262    -0.15600
F955        F  0.16968597  0.72876428  0.57922376    -0.15600
F956        F  0.15165258  0.69220203  0.64127736    -0.13300
C957        C  0.06421524  0.66095930  0.89037599     0.24800
C958        C  0.08972612  0.66239964  0.86918726    -0.23400
C959        C  0.12432298  0.68335555  0.88047597     0.19700
C960        C  0.13328052  0.70271806  0.91197796     0.24700
C961        C  0.10790738  0.70155279  0.93286045    -0.23300
C962        C  0.07327886  0.68029368  0.92209037     0.19600
F963        F  0.04835667  0.67869638  0.94197277    -0.13300
F964        F  0.03044938  0.64059789  0.88072254    -0.15600
F965        F  0.16683923  0.72224195  0.92248577    -0.15600
F966        F  0.14970771  0.68559746  0.86084736    -0.13300
C967        C  0.86113016  0.24598076  0.98090914     0.24800
C968        C  0.86716198  0.27513971  0.99854784    -0.23400
C969        C  0.83955749  0.27315217  0.51549580     0.19700
C970        C  0.80648907  0.24274256  0.51466125     0.24700
C971        C  0.80021566  0.21356129  0.99684314    -0.23300
C972        C  0.82784804  0.21533422  0.98011072     0.19600
F973        F  0.82267195  0.18727478  0.96353594    -0.13300
F974        F  0.88751821  0.24709439  0.96495221    -0.15600
F975        F  0.78026098  0.24219734  0.53023738    -0.15600
F976        F  0.84441396  0.30116441  0.53187140    -0.13300
C977        C  0.48908443  0.25950222  0.97666191     0.24800
C978        C  0.51681965  0.26407736  0.99648430    -0.23400
C979        C  0.53619353  0.29285125  0.51919646     0.19700
C980        C  0.52785713  0.31650515  0.52221754     0.24700
C981        C  0.50007434  0.31184327  0.00248764    -0.23300
C982        C  0.48080196  0.28323931  0.97964426     0.19600
F983        F  0.45355294  0.27800447  0.96071694    -0.13300
F984        F  0.46937363  0.23155199  0.95522346    -0.15600
F985        F  0.54764449  0.34456456  0.54353053    -0.15600
F986        F  0.56370743  0.29846434  0.53790079    -0.13300
C987        C  0.67057007  0.09536396  0.57022209     0.24800
C988        C  0.68932118  0.12981470  0.55905786    -0.23400
C989        C  0.68780177  0.15363387  0.57976878     0.19700
C990        C  0.66798487  0.14329480  0.61121319     0.24700
C991        C  0.64948036  0.10886841  0.62289006    -0.23300
C992        C  0.65103947  0.08498595  0.60200708     0.19600
F993        F  0.63342156  0.05148488  0.61201682    -0.13300
F994        F  0.67161637  0.07187589  0.55060550    -0.15600
F995        F  0.66724098  0.16721332  0.63030096    -0.15600
F996        F  0.70503824  0.18693817  0.56908533    -0.13300
C997        C  0.65300690  0.08430262  0.88407293     0.24800
C998        C  0.65426169  0.10857015  0.86091324    -0.23400
C999        C  0.67680842  0.14370875  0.86940672     0.19700
C1000       C  0.69685183  0.15430192  0.90083793     0.24700
C1001       C  0.69472923  0.13002011  0.92461015    -0.23300
C1002       C  0.67289731  0.09493999  0.91572586     0.19600
F1003       F  0.67062296  0.07091918  0.93791083    -0.13300
F1004       F  0.63163283  0.05017274  0.87685124    -0.15600
F1005       F  0.71719228  0.18832799  0.90884496    -0.15600
F1006       F  0.67944861  0.16799034  0.84736069    -0.13300
C1007       C  0.50708193  0.15315677  0.61558789     0.24800
C1008       C  0.53574906  0.15290280  0.62508594    -0.23400
C1009       C  0.56457396  0.16888017  0.60200659     0.19700
C1010       C  0.56435126  0.18416823  0.56974843     0.24700
C1011       C  0.53552722  0.18399898  0.56029141    -0.23300
C1012       C  0.50701591  0.16857036  0.58353518     0.19600
F1013       F  0.47866961  0.16773478  0.57476500    -0.13300
F1014       F  0.47905705  0.13869031  0.63739726    -0.15600
F1015       F  0.59241594  0.19950036  0.54791632    -0.15600
F1016       F  0.59267357  0.16911294  0.61016711    -0.13300
C1017       C  0.56593945  0.17330072  0.88376130     0.24800
C1018       C  0.53599381  0.15419569  0.86231280    -0.23400
C1019       C  0.50630947  0.15229810  0.87273929     0.19700
C1020       C  0.50646134  0.16861527  0.90413344     0.24700
C1021       C  0.53606326  0.18682460  0.92588147    -0.23300
C1022       C  0.56585931  0.18931382  0.91538558     0.19600
F1023       F  0.59486329  0.20721567  0.93591391    -0.13300
F1024       F  0.59504619  0.17577154  0.87477988    -0.15600
F1025       F  0.47723510  0.16557730  0.91403787    -0.15600
F1026       F  0.47691810  0.13446477  0.85278471    -0.13300
C1027       C  0.25036032  0.84877363  0.97057868     0.24800
C1028       C  0.25548642  0.87639500  0.99073483    -0.23400
C1029       C  0.22820323  0.87139827  0.51169273     0.19700
C1030       C  0.19661079  0.83908848  0.51306387     0.24700
C1031       C  0.19183699  0.81143000  0.99332027    -0.23300
C1032       C  0.21897921  0.81669360  0.97193657     0.19600
F1033       F  0.21585010  0.79021341  0.95383592    -0.13300
F1034       F  0.27643854  0.85218692  0.95115896    -0.15600
F1035       F  0.17075019  0.83478901  0.53368177    -0.15600
F1036       F  0.23222561  0.89776507  0.53091997    -0.13300
C1037       C  0.40122937  0.00700606  0.60311156     0.24800
C1038       C  0.39836501  0.98286988  0.62769427    -0.23400
C1039       C  0.37488469  0.94762956  0.62035102     0.19700
C1040       C  0.35576001  0.93671638  0.58833579     0.24700
C1041       C  0.35958754  0.96086081  0.56304518    -0.23300
C1042       C  0.38209104  0.99608227  0.57103508     0.19600
F1043       F  0.38573809  0.01998201  0.54759128    -0.13300
F1044       F  0.42353252  0.04122450  0.60935022    -0.15600
F1045       F  0.33465981  0.90249464  0.58143399    -0.15600
F1046       F  0.37048050  0.92359596  0.64411359    -0.13300
C1047       C  0.38690538  0.99778137  0.91973171     0.24800
C1048       C  0.36513045  0.96266644  0.92838608    -0.23400
C1049       C  0.36406836  0.93857944  0.90540167     0.19700
C1050       C  0.38412898  0.94926578  0.87421284     0.24700
C1051       C  0.40567922  0.98433219  0.86518393    -0.23300
C1052       C  0.40696670  0.00856008  0.88832277     0.19600
F1053       F  0.42807612  0.04270118  0.88099772    -0.13300
F1054       F  0.38841763  0.02158640  0.94147324    -0.15600
F1055       F  0.38204401  0.92506529  0.85265363    -0.15600
F1056       F  0.34416086  0.90457795  0.91360634    -0.13300
C1057       C  0.57493079  0.81052082  0.98323209     0.24800
C1058       C  0.55306059  0.77934889  0.00174417    -0.23400
C1059       C  0.52306787  0.77268251  0.51820777     0.19700
C1060       C  0.51515895  0.79685621  0.51629329     0.24700
C1061       C  0.53697453  0.82798194  0.49768892    -0.23300
C1062       C  0.56696302  0.83464947  0.98122954     0.19600
F1063       F  0.58890258  0.86486431  0.96384824    -0.13300
F1064       F  0.60433934  0.81782229  0.96763531    -0.15600
F1065       F  0.48566083  0.78947299  0.53172598    -0.15600
F1066       F  0.50086114  0.74227000  0.53515029    -0.13300
C1067       C  0.54764297  0.94691510  0.60832017     0.24800
C1068       C  0.51749637  0.94338996  0.62023362    -0.23400
C1069       C  0.48699603  0.92302117  0.59975437     0.19700
C1070       C  0.48659465  0.90600035  0.56864039     0.24700
C1071       C  0.51651444  0.90888204  0.55766617    -0.23300
C1072       C  0.54702410  0.92966063  0.57754964     0.19600
F1073       F  0.57654766  0.93378523  0.56668936    -0.13300
F1074       F  0.57790805  0.96691663  0.62647506    -0.15600
F1075       F  0.45690057  0.88631417  0.54946885    -0.15600
F1076       F  0.45766046  0.91979034  0.60951619    -0.13300
C1077       C  0.54391009  0.91742678  0.90015136     0.24800
C1078       C  0.51547853  0.90235614  0.92354427    -0.23400
C1079       C  0.48695789  0.90274617  0.91399090     0.19700
C1080       C  0.48728724  0.91888600  0.88214532     0.24700
C1081       C  0.51636007  0.93525515  0.85939880    -0.23300
C1082       C  0.54442783  0.93383074  0.86848472     0.19600
F1083       F  0.57259530  0.94850990  0.84687170    -0.13300
F1084       F  0.57191118  0.91760677  0.90874759    -0.15600
F1085       F  0.45961006  0.91949308  0.87434875    -0.15600
F1086       F  0.45883231  0.88767776  0.93572059    -0.13300
loop_ 
_geom_bond_atom_site_label_1 
_geom_bond_atom_site_label_2 
_geom_bond_distance 
_geom_bond_site_symmetry_2 
_ccdc_geom_bond_type 
C1            C6   1.404   1_556  A
C1          C545   1.405       .  A
C1          C518   1.481       .  S
C2            C3   1.405       .  A
C2          C544   1.405       .  A
C2            H7   1.084       .  S
C3            C4   1.404       .  A
C3          C535   1.481       .  S
C4          C548   1.400       .  A
C4            H8   1.084       .  S
C5            C6   1.404       .  A
C5          C547   1.400   1_554  A
C5          C528   1.477       .  S
C6            H9   1.084       .  S
C10          C11   1.403       .  A
C10         C558   1.402       .  A
C10         C485   1.481       .  S
C11          C12   1.402       .  A
C11          H16   1.084       .  S
C12          C13   1.402       .  A
C12         C505   1.480       .  S
C13         C557   1.405       .  A
C13          H17   1.084       .  S
C14          C15   1.404       .  A
C14         C556   1.405   1_554  A
C14         C498   1.483       .  S
C15         C553   1.402   1_554  A
C15          H18   1.083       .  S
N19          N20   1.320       .  A
N19          N25   1.316       .  A
N19         Mn48   2.206       .  S
N20          C27   1.354       .  A
N21          N23   1.314       .  A
N21          N22   1.321       .  A
N21         Mn37   2.201       .  S
N22          C28   1.354       .  A
N23          N24   1.320       .  A
N23         Mn48   2.203       .  S
N24          C28   1.355       .  A
N25          N26   1.321       .  A
N25         Mn37   2.206       .  S
N26          C27   1.354       .  A
C27         C455   1.484       .  S
C28         C448   1.486       .  S
N29          N35   1.315       .  A
N29          N30   1.323       .  A
N29         Mn59   2.210       .  S
N30          C38   1.357       .  A
N31          N32   1.320       .  A
N31          N33   1.315       .  A
N31         Mn37   2.200   1_565  S
N32          C39   1.354       .  A
N33          N34   1.321       .  A
N33         Mn59   2.203       .  S
N34          C39   1.354       .  A
N35          N36   1.317       .  A
N35         Mn37   2.196   1_565  S
N36          C38   1.352       .  A
Mn37        Cl61   2.544       .  S
C38         C525   1.486       .  S
C39         C538   1.483       .  S
N40          N41   1.321       .  A
N40          N46   1.315       .  A
N40         Mn48   2.205       .  S
N41          C49   1.354       .  A
N42          N44   1.315       .  A
N42          N43   1.317       .  A
N42         Mn60   2.187       .  S
N43          C50   1.350       .  A
N44          N45   1.322       .  A
N44         Mn48   2.211       .  S
N45          C50   1.356       .  A
N46          N47   1.317       .  A
N46         Mn60   2.192       .  S
N47          C49   1.352       .  A
Mn48        Cl61   2.551       .  S
C49         C465   1.478       .  S
C50         C475   1.482       .  S
N51          N52   1.319       .  A
N51          N57   1.315   1_565  A
N51         Mn59   2.202       .  S
N52          C62   1.354       .  A
N53          N54   1.321       .  A
N53          N55   1.314   1_545  A
N53         Mn60   2.200       .  S
N54          C63   1.354   1_545  A
N55          N56   1.318       .  A
N55         Mn59   2.195       .  S
N56          C63   1.352       .  A
N57          N58   1.321       .  A
N57         Mn60   2.198       .  S
N58          C62   1.353   1_545  A
Mn59        Cl61   2.550   1_565  S
Mn60        Cl61   2.544       .  S
C62         C508   1.480       .  S
C63         C495   1.478       .  S
C64          C65   1.404       .  A
C64         C612   1.400       .  A
C64         C435   1.477       .  S
C65          C66   1.403       .  A
C65          H70   1.084       .  S
C66          C67   1.402       .  A
C66         C478   1.474       .  S
C67         C611   1.401       .  A
C67          H71   1.084       .  S
C68          C69   1.399       .  A
C68         C610   1.401   1_554  A
C68         C468   1.474       .  S
C69         C607   1.400   1_554  A
C69          H72   1.084       .  S
C73          C78   1.403   1_556  A
C73         C617   1.405       .  A
C73         C971   1.484       .  S
C74          C75   1.408       .  A
C74         C616   1.405       .  A
C74          H79   1.083       .  S
C75          C76   1.406       .  A
C75         C458   1.485       .  S
C76         C620   1.402       .  A
C76          H80   1.084       .  S
C77          C78   1.402       .  A
C77         C619   1.402   1_554  A
C77         C445   1.480       .  S
C78          H81   1.084       .  S
N82          N83   1.318       .  A
N82          N88   1.315       .  A
N82        Mn111   2.187       .  S
N83          C90   1.351       .  A
N84          N86   1.314       .  A
N84          N85   1.319       .  A
N84        Mn100   2.194       .  S
N85          C91   1.353       .  A
N86          N87   1.319       .  A
N86        Mn111   2.196       .  S
N87          C91   1.353       .  A
N88          N89   1.319       .  A
N88        Mn100   2.201       .  S
N89          C90   1.355       .  A
C90         C415   1.477       .  S
C91         C405   1.478       .  S
N92          N98   1.315       .  A
N92          N93   1.318       .  A
N92        Mn122   2.197       .  S
N93         C101   1.352       .  A
N94          N95   1.321       .  A
N94          N96   1.313       .  A
N94        Mn100   2.197       .  S
N95         C102   1.354       .  A
N96          N97   1.316       .  A
N96        Mn122   2.181       .  S
N97         C102   1.350       .  A
N98          N99   1.322       .  A
N98        Mn100   2.207       .  S
N99         C101   1.355       .  A
Mn100      Cl124   2.553       .  S
C101        C388   1.481       .  S
C102        C395   1.475       .  S
N103        N104   1.316       .  A
N103        N109   1.315       .  A
N103       Mn111   2.185   1_655  S
N104        C112   1.350       .  A
N105        N107   1.314       .  A
N105        N106   1.324       .  A
N105       Mn123   2.212       .  S
N106        C113   1.357       .  A
N107        N108   1.317       .  A
N107       Mn111   2.190   1_655  S
N108        C113   1.351       .  A
N109        N110   1.323       .  A
N109       Mn123   2.217       .  S
N110        C112   1.358       .  A
Mn111      Cl124   2.536       .  S
C112        C348   1.482       .  S
C113        C355   1.484       .  S
N114        N115   1.321       .  A
N114        N120   1.315   1_455  A
N114       Mn122   2.201       .  S
N115        C125   1.354   1_455  A
N116        N117   1.321       .  A
N116        N118   1.314   1_655  A
N116       Mn123   2.210       .  S
N117        C126   1.356       .  A
N118        N119   1.319       .  A
N118       Mn122   2.188       .  S
N119        C126   1.351   1_455  A
N120        N121   1.320       .  A
N120       Mn123   2.208       .  S
N121        C125   1.355       .  A
Mn122      Cl124   2.539       .  S
Mn123      Cl124   2.553   1_655  S
C125        C375   1.487       .  S
C126        C365   1.484       .  S
C127        C128   1.399       .  A
C127        C675   1.402       .  A
C127        C338   1.472       .  S
C128        C129   1.401       .  A
C128        H133   1.084       .  S
C129        C130   1.402       .  A
C129        C398   1.473       .  S
C130        C674   1.402       .  A
C130        H134   1.084       .  S
C131        C132   1.404       .  A
C131        C673   1.402   1_554  A
C131        C385   1.478       .  S
C132        C670   1.402   1_554  A
C132        H135   1.084       .  S
C136        C137   1.404       .  A
C136        C684   1.402       .  A
C136        C425   1.481       .  S
C137        C138   1.408       .  A
C137        H142   1.084       .  S
C138        C139   1.403       .  A
C138        C378   1.480       .  S
C139        C683   1.401       .  A
C139        H143   1.084       .  S
C140        C141   1.401       .  A
C140        C682   1.401   1_554  A
C140        C368   1.473       .  S
C141        C679   1.402   1_554  A
C141        H144   1.084       .  S
C145        C146   1.406       .  A
C145        C693   1.402       .  A
C145        C325   1.484       .  S
C146        C147   1.407       .  A
C146        H151   1.083       .  S
C147        C148   1.404       .  A
C147        C358   1.483       .  S
C148        C692   1.402       .  A
C148        H152   1.084       .  S
C149        C150   1.402       .  A
C149        C691   1.402   1_554  A
C149        C345   1.478       .  S
C150        C688   1.402   1_554  A
C150        H153   1.084       .  S
C154        C155   1.400       .  A
C154        C702   1.403       .  A
C154        C488   1.479       .  S
C155        C156   1.398       .  A
C155        H160   1.084       .  S
C156        C157   1.400       .  A
C156        C418   1.474       .  S
C157        C701   1.404       .  A
C157        H161   1.084       .  S
C158        C159   1.406       .  A
C158        C700   1.404   1_554  A
C158        C408   1.478       .  S
C159        C697   1.403   1_554  A
C159        H162   1.083       .  S
N163        N164   1.318       .  A
N163        N169   1.314       .  A
N163       Mn192   2.180       .  S
N164        C171   1.352       .  A
N165        N167   1.314       .  A
N165        N166   1.316       .  A
N165       Mn181   2.188       .  S
N166        C172   1.352       .  A
N167        N168   1.318       .  A
N167       Mn192   2.186       .  S
N168        C172   1.352       .  A
N169        N170   1.315       .  A
N169       Mn181   2.186       .  S
N170        C171   1.351       .  A
C171        C315   1.472       .  S
C172        C308   1.474       .  S
N173        N179   1.314       .  A
N173        N174   1.324       .  A
N173       Mn203   2.217       .  S
N174        C182   1.358       .  A
N175        N176   1.316       .  A
N175        N177   1.315       .  A
N175       Mn181   2.190       .  S
N176        C183   1.351       .  A
N177        N178   1.324       .  A
N177       Mn203   2.218       .  S
N178        C183   1.358       .  A
N179        N180   1.316       .  A
N179       Mn181   2.186       .  S
N180        C182   1.350       .  A
Mn181      Cl205   2.526       .  S
C182        C285   1.487       .  S
C183        C295   1.487       .  S
N184        N185   1.321       .  A
N184        N190   1.312       .  A
N184       Mn192   2.189       .  S
N185        C193   1.354       .  A
N186        N188   1.313       .  A
N186        N187   1.316       .  A
N186       Mn204   2.189       .  S
N187        C194   1.352       .  A
N188        N189   1.321       .  A
N188       Mn192   2.198       .  S
N189        C194   1.355       .  A
N190        N191   1.314       .  A
N190       Mn204   2.182       .  S
N191        C193   1.350       .  A
Mn192      Cl205   2.560       .  S
C193        C248   1.476       .  S
C194        C255   1.481       .  S
N195        N196   1.323       .  A
N195        N201   1.315       .  A
N195       Mn203   2.219       .  S
N196        C206   1.358       .  A
N197        N198   1.314       .  A
N197        N199   1.315       .  A
N197       Mn204   2.178       .  S
N198        C207   1.348       .  A
N199        N200   1.323       .  A
N199       Mn203   2.211       .  S
N200        C207   1.357       .  A
N201        N202   1.315       .  A
N201       Mn204   2.178       .  S
N202        C206   1.349       .  A
Mn203      Cl205   2.563       .  S
Mn204      Cl205   2.525       .  S
C206        C275   1.482       .  S
C207        C268   1.480       .  S
C208        C213   1.399       .  A
C208        C752   1.401       .  A
C208        C438   1.472       .  S
C209        C210   1.400       .  A
C209        C751   1.401       .  A
C209        H214   1.084       .  S
C210        C211   1.399       .  A
C210        C318   1.464       .  S
C211        C755   1.396   1_554  A
C211        H215   1.085       .  S
C212        C213   1.397       .  A
C212        C754   1.396       .  A
C212        C305   1.460       .  S
C213        H216   1.084       .  S
C217        C222   1.397       .  A
C217        C761   1.400       .  A
C217        C335   1.473       .  S
C218        C219   1.403       .  A
C218        C760   1.400       .  A
C218        H223   1.084       .  S
C219        C220   1.402       .  A
C219        C258   1.473       .  S
C220        C764   1.400   1_554  A
C220        H224   1.084       .  S
C221        C222   1.402       .  A
C221        C763   1.400       .  A
C221        C245   1.472       .  S
C222        H225   1.084       .  S
C226        C231   1.401       .  A
C226        C770   1.404       .  A
C226        C328   1.483       .  S
C227        C228   1.406       .  A
C227        C769   1.404       .  A
C227        H232   1.084       .  S
C228        C772   1.405       .  A
C228        C298   1.481       .  S
C229        C230   1.404       .  A
C229        C771   1.405       .  A
C229        H776   1.084       .  S
C230        C231   1.402       .  A
C230        C288   1.477       .  S
C231        H234   1.084       .  S
H233        C772   1.084       .  S
C235        C240   1.403       .  A
C235        C779   1.403       .  A
C235        C515   1.481       .  S
C236        C237   1.404       .  A
C236        C778   1.403       .  A
C236        H241   1.084       .  S
C237        C238   1.400       .  A
C237        C278   1.473       .  S
C238        C782   1.400   1_554  A
C238        H242   1.084       .  S
C239        C240   1.404       .  A
C239        C781   1.400       .  A
C239        C265   1.475       .  S
C240        H243   1.084       .  S
C244        C245   1.402       .  A
C244        C249   1.388       .  A
C244        F251   1.359       .  S
C245        C246   1.404       .  A
C246        C247   1.401       .  A
C246        F253   1.358       .  S
C247        C248   1.410       .  A
C247        F252   1.358       .  S
C248        C249   1.408       .  A
C249        F250   1.358       .  S
C254        C255   1.410       .  A
C254        C259   1.393       .  A
C254        F261   1.358       .  S
C255        C256   1.410       .  A
C256        C257   1.400       .  A
C256        F263   1.357       .  S
C257        C258   1.403       .  A
C257        F262   1.358       .  S
C258        C259   1.403       .  A
C259        F260   1.358       .  S
C264        C265   1.402       .  A
C264        C269   1.392       .  A
C264        F271   1.359       .  S
C265        C266   1.405       .  A
C266        C267   1.401       .  A
C266        F273   1.358       .  S
C267        C268   1.409       .  A
C267        F272   1.358       .  S
C268        C269   1.410       .  A
C269        F270   1.358       .  S
C274        C275   1.409       .  A
C274        C279   1.400       .  A
C274        F281   1.357       .  S
C275        C276   1.413       .  A
C276        C277   1.394       .  A
C276        F283   1.358       .  S
C277        C278   1.401       .  A
C277        F282   1.359       .  S
C278        C279   1.404       .  A
C279        F280   1.358       .  S
C284        C285   1.411       .  A
C284        C289   1.404       .  A
C284        F291   1.357       .  S
C285        C286   1.412       .  A
C286        C287   1.394       .  A
C286        F293   1.358       .  S
C287        C288   1.402       .  A
C287        F292   1.359       .  S
C288        C289   1.404       .  A
C289        F290   1.357       .  S
C294        C295   1.410       .  A
C294        C299   1.404       .  A
C294        F301   1.357       .  S
C295        C296   1.412       .  A
C296        C297   1.395       .  A
C296        F303   1.358       .  S
C297        C298   1.403       .  A
C297        F302   1.358       .  S
C298        C299   1.405       .  A
C299        F300   1.357       .  S
C304        C305   1.400       .  A
C304        C309   1.391       .  A
C304        F311   1.359       .  S
C305        C306   1.398       .  A
C306        C307   1.396       .  A
C306        F313   1.358       .  S
C307        C308   1.411       .  A
C307        F312   1.357       .  S
C308        C309   1.409       .  A
C309        F310   1.358       .  S
C314        C315   1.408       .  A
C314        C319   1.390       .  A
C314        F321   1.358       .  S
C315        C316   1.410       .  A
C316        C317   1.396       .  A
C316        F323   1.358       .  S
C317        C318   1.401       .  A
C317        F322   1.358       .  S
C318        C319   1.401       .  A
C319        F320   1.358       .  S
C324        C329   1.398       .  A
C324        C868   1.407   1_554  A
C324        F331   1.358       .  S
C325        C326   1.407       .  A
C325        C867   1.407       .  A
C326        C327   1.400       .  A
C326        F333   1.358       .  S
C327        C328   1.407       .  A
C327        F332   1.358       .  S
C328        C872   1.407       .  A
C329        C871   1.407       .  A
C329        F330   1.358       .  S
C334        C339   1.396       .  A
C334        C878   1.402   1_554  A
C334        F341   1.358       .  S
C335        C336   1.407       .  A
C335        C877   1.402       .  A
C336        C337   1.397       .  A
C336        F343   1.358       .  S
C337        C338   1.404       .  A
C337        F342   1.358       .  S
C338        C882   1.405       .  A
C339        C881   1.405   1_554  A
C339        F340   1.358       .  S
C344        C345   1.405       .  A
C344        C349   1.401       .  A
C344        F351   1.358       .  S
C345        C346   1.403       .  A
C346        C347   1.395       .  A
C346        F353   1.358       .  S
C347        C348   1.411       .  A
C347        F352   1.358       .  S
C348        C349   1.409       .  A
C349        F350   1.357       .  S
C354        C355   1.408       .  A
C354        C359   1.402       .  A
C354        F361   1.358       .  S
C355        C356   1.410       .  A
C356        C357   1.396       .  A
C356        F363   1.358       .  S
C357        C358   1.404       .  A
C357        F362   1.358       .  S
C358        C359   1.408       .  A
C359        F360   1.358       .  S
C364        C365   1.408       .  A
C364        C369   1.395       .  A
C364        F371   1.357       .  S
C365        C366   1.414       .  A
C366        C367   1.401       .  A
C366        F373   1.358   1_655  S
C367        C368   1.401       .  A
C367        F372   1.358   1_655  S
C368        C369   1.403       .  A
C369        F370   1.358       .  S
C374        C375   1.409       .  A
C374        C379   1.396       .  A
C374        F381   1.357       .  S
C375        C376   1.412   1_655  A
C376        C377   1.403   1_455  A
C376        F383   1.358       .  S
C377        C378   1.404       .  A
C377        F382   1.358   1_655  S
C378        C379   1.404       .  A
C379        F380   1.358       .  S
C384        C385   1.406       .  A
C384        C389   1.401       .  A
C384        F391   1.358       .  S
C385        C386   1.403       .  A
C386        C387   1.394       .  A
C386        F393   1.358       .  S
C387        C388   1.409       .  A
C387        F392   1.358       .  S
C388        C389   1.409       .  A
C389        F390   1.358       .  S
C394        C395   1.409       .  A
C394        C399   1.393       .  A
C394        F401   1.358       .  S
C395        C396   1.408       .  A
C396        C397   1.398       .  A
C396        F403   1.358       .  S
C397        C398   1.404       .  A
C397        F402   1.358       .  S
C398        C399   1.404       .  A
C399        F400   1.358       .  S
C404        C405   1.409       .  A
C404        C409   1.398       .  A
C404        F411   1.358       .  S
C405        C406   1.408       .  A
C406        C407   1.396       .  A
C406        F413   1.358       .  S
C407        C408   1.406       .  A
C407        F412   1.358       .  S
C408        C409   1.405       .  A
C409        F410   1.358       .  S
C414        C415   1.411       .  A
C414        C419   1.399       .  A
C414        F421   1.358       .  S
C415        C416   1.406       .  A
C416        C417   1.393       .  A
C416        F423   1.358       .  S
C417        C418   1.405       .  A
C417        F422   1.358       .  S
C418        C419   1.402       .  A
C419        F420   1.358       .  S
C424        C425   1.406       .  A
C424        C429   1.405       .  A
C424        F431   1.358       .  S
C425        C969   1.405       .  A
C426        C427   1.395       .  A
C426        C968   1.405   1_554  A
C426        F433   1.358       .  S
C427        C971   1.406   1_554  A
C427        F432   1.358       .  S
C428        C429   1.408       .  A
C428        C970   1.406       .  A
C428        C616   1.484       .  S
C429        F430   1.358       .  S
C434        C435   1.406       .  A
C434        C439   1.396       .  A
C434        F441   1.358       .  S
C435        C979   1.407       .  A
C436        C437   1.394       .  A
C436        C978   1.407   1_554  A
C436        F443   1.358       .  S
C437        C981   1.405       .  A
C437        F442   1.358       .  S
C438        C439   1.405       .  A
C438        C980   1.405       .  A
C439        F440   1.358       .  S
C444        C445   1.404       .  A
C444        C449   1.401       .  A
C444        F451   1.358       .  S
C445        C446   1.405       .  A
C446        C447   1.397       .  A
C446        F453   1.358       .  S
C447        C448   1.409       .  A
C447        F452   1.358       .  S
C448        C449   1.412       .  A
C449        F450   1.358       .  S
C454        C455   1.409       .  A
C454        C459   1.402       .  A
C454        F461   1.358       .  S
C455        C456   1.408       .  A
C456        C457   1.398       .  A
C456        F463   1.358       .  S
C457        C458   1.407       .  A
C457        F462   1.358       .  S
C458        C459   1.407       .  A
C459        F460   1.358       .  S
C464        C465   1.408       .  A
C464        C469   1.394       .  A
C464        F471   1.358       .  S
C465        C466   1.409       .  A
C466        C467   1.399       .  A
C466        F473   1.358       .  S
C467        C468   1.404       .  A
C467        F472   1.358       .  S
C468        C469   1.404       .  A
C469        F470   1.358       .  S
C474        C475   1.409       .  A
C474        C479   1.399       .  A
C474        F481   1.357       .  S
C475        C476   1.411       .  A
C476        C477   1.396       .  A
C476        F483   1.358       .  S
C477        C478   1.402       .  A
C477        F482   1.358       .  S
C478        C479   1.403       .  A
C479        F480   1.358       .  S
C484        C485   1.406       .  A
C484        C489   1.391       .  A
C484        F491   1.358       .  S
C485       C1029   1.408       .  A
C486        C487   1.401       .  A
C486       C1028   1.408   1_554  A
C486        F493   1.358       .  S
C487       C1031   1.406   1_554  A
C487        F492   1.358       .  S
C488        C489   1.407       .  A
C488       C1030   1.406       .  A
C489        F490   1.358       .  S
C494        C495   1.407   1_545  A
C494        C499   1.399   1_545  A
C494        F501   1.358       .  S
C495        C496   1.407       .  A
C496        C497   1.397       .  A
C496        F503   1.358       .  S
C497        C498   1.408       .  A
C497        F502   1.358       .  S
C498        C499   1.407       .  A
C499        F500   1.358   1_565  S
C504        C505   1.406       .  A
C504        C509   1.401   1_565  A
C504        F511   1.358   1_565  S
C505        C506   1.406       .  A
C506        C507   1.394       .  A
C506        F513   1.358       .  S
C507        C508   1.407       .  A
C507        F512   1.358       .  S
C508        C509   1.410   1_565  A
C509        F510   1.358       .  S
C514        C515   1.406       .  A
C514        C519   1.400       .  A
C514        F521   1.358       .  S
C515       C1059   1.407       .  A
C516        C517   1.400       .  A
C516       C1058   1.407       .  A
C516        F523   1.358       .  S
C517        C518   1.406   1_554  A
C517        F522   1.358       .  S
C518       C1062   1.406       .  A
C519       C1061   1.406       .  A
C519        F520   1.358       .  S
C524        C525   1.411       .  A
C524        C529   1.396       .  A
C524        F531   1.358       .  S
C525        C526   1.411       .  A
C526        C527   1.403       .  A
C526        F533   1.358       .  S
C527        C528   1.405       .  A
C527        F532   1.358       .  S
C528        C529   1.401       .  A
C529        F530   1.358       .  S
C534        C535   1.405       .  A
C534        C539   1.398       .  A
C534        F541   1.358       .  S
C535        C536   1.406       .  A
C536        C537   1.400       .  A
C536        F543   1.358       .  S
C537        C538   1.409       .  A
C537        F542   1.358       .  S
C538        C539   1.409       .  A
C539        F540   1.358       .  S
C544        C549   1.404       .  A
C544       C1061   1.481       .  S
C545        C546   1.405       .  A
C545        H550   1.084       .  S
C546        C547   1.404       .  A
C546       C1078   1.481       .  S
C547        H551   1.084       .  S
C548        C549   1.404       .  A
C548       C1071   1.477       .  S
C549        H552   1.084       .  S
C553        C554   1.403       .  A
C553       C1028   1.481       .  S
C554        C555   1.402       .  A
C554        H559   1.084       .  S
C555        C556   1.402       .  A
C555       C1048   1.480       .  S
C556        H560   1.084       .  S
C557        C558   1.404       .  A
C557       C1041   1.483       .  S
C558        H561   1.083       .  S
N562        N563   1.320       .  A
N562        N568   1.316       .  A
N562       Mn591   2.206       .  S
N563        C570   1.354       .  A
N564        N566   1.314       .  A
N564        N565   1.321       .  A
N564       Mn580   2.201       .  S
N565        C571   1.354       .  A
N566        N567   1.320       .  A
N566       Mn591   2.203       .  S
N567        C571   1.355       .  A
N568        N569   1.321       .  A
N568       Mn580   2.206       .  S
N569        C570   1.354       .  A
C570        C998   1.484       .  S
C571        C991   1.486       .  S
N572        N578   1.315       .  A
N572        N573   1.323       .  A
N572       Mn602   2.210       .  S
N573        C581   1.357       .  A
N574        N575   1.320       .  A
N574        N576   1.315       .  A
N574       Mn580   2.200   1_565  S
N575        C582   1.354       .  A
N576        N577   1.321       .  A
N576       Mn602   2.203       .  S
N577        C582   1.354       .  A
N578        N579   1.317       .  A
N578       Mn580   2.196   1_565  S
N579        C581   1.352       .  A
Mn580      Cl604   2.544       .  S
C581       C1068   1.486       .  S
C582       C1081   1.483       .  S
N583        N584   1.321       .  A
N583        N589   1.315       .  A
N583       Mn591   2.205       .  S
N584        C592   1.354       .  A
N585        N587   1.315       .  A
N585        N586   1.317       .  A
N585       Mn603   2.187       .  S
N586        C593   1.350       .  A
N587        N588   1.322       .  A
N587       Mn591   2.211       .  S
N588        C593   1.356       .  A
N589        N590   1.317       .  A
N589       Mn603   2.192       .  S
N590        C592   1.352       .  A
Mn591      Cl604   2.551       .  S
C592       C1008   1.478       .  S
C593       C1018   1.482       .  S
N594        N595   1.319       .  A
N594        N600   1.315   1_565  A
N594       Mn602   2.202       .  S
N595        C605   1.354       .  A
N596        N597   1.321       .  A
N596        N598   1.314   1_545  A
N596       Mn603   2.200       .  S
N597        C606   1.354   1_545  A
N598        N599   1.318       .  A
N598       Mn602   2.195       .  S
N599        C606   1.352       .  A
N600        N601   1.321       .  A
N600       Mn603   2.198       .  S
N601        C605   1.353   1_545  A
Mn602      Cl604   2.550   1_565  S
Mn603      Cl604   2.544       .  S
C605       C1051   1.480       .  S
C606       C1038   1.478       .  S
C607        C608   1.404       .  A
C607        C978   1.477       .  S
C608        C609   1.403       .  A
C608        H613   1.084       .  S
C609        C610   1.402       .  A
C609       C1021   1.474       .  S
C610        H614   1.084       .  S
C611        C612   1.399       .  A
C611       C1011   1.474       .  S
C612        H615   1.084       .  S
C616        C621   1.403       .  A
C617        C618   1.408       .  A
C617        H622   1.083       .  S
C618        C619   1.406       .  A
C618       C1001   1.485       .  S
C619        H623   1.084       .  S
C620        C621   1.402       .  A
C620        C988   1.480       .  S
C621        H624   1.084       .  S
N625        N626   1.318       .  A
N625        N631   1.315       .  A
N625       Mn654   2.187       .  S
N626        C633   1.351       .  A
N627        N629   1.314       .  A
N627        N628   1.319       .  A
N627       Mn643   2.194       .  S
N628        C634   1.353       .  A
N629        N630   1.319       .  A
N629       Mn654   2.196       .  S
N630        C634   1.353       .  A
N631        N632   1.319       .  A
N631       Mn643   2.201       .  S
N632        C633   1.355       .  A
C633        C958   1.477       .  S
C634        C948   1.478       .  S
N635        N641   1.315       .  A
N635        N636   1.318       .  A
N635       Mn665   2.197       .  S
N636        C644   1.352       .  A
N637        N638   1.321       .  A
N637        N639   1.313       .  A
N637       Mn643   2.197       .  S
N638        C645   1.354       .  A
N639        N640   1.316       .  A
N639       Mn665   2.181       .  S
N640        C645   1.350       .  A
N641        N642   1.322       .  A
N641       Mn643   2.207       .  S
N642        C644   1.355       .  A
Mn643      Cl667   2.553       .  S
C644        C931   1.481       .  S
C645        C938   1.475       .  S
N646        N647   1.316       .  A
N646        N652   1.315       .  A
N646       Mn654   2.185   1_655  S
N647        C655   1.350       .  A
N648        N650   1.314       .  A
N648        N649   1.324       .  A
N648       Mn666   2.212       .  S
N649        C656   1.357       .  A
N650        N651   1.317       .  A
N650       Mn654   2.190   1_655  S
N651        C656   1.351       .  A
N652        N653   1.323       .  A
N652       Mn666   2.217       .  S
N653        C655   1.358       .  A
Mn654      Cl667   2.536       .  S
C655        C891   1.482       .  S
C656        C898   1.484       .  S
N657        N658   1.321       .  A
N657        N663   1.315   1_455  A
N657       Mn665   2.201       .  S
N658        C668   1.354   1_455  A
N659        N660   1.321       .  A
N659        N661   1.314   1_655  A
N659       Mn666   2.210       .  S
N660        C669   1.356       .  A
N661        N662   1.319       .  A
N661       Mn665   2.188       .  S
N662        C669   1.351   1_455  A
N663        N664   1.320       .  A
N663       Mn666   2.208       .  S
N664        C668   1.355       .  A
Mn665      Cl667   2.539       .  S
Mn666      Cl667   2.553   1_655  S
C668        C918   1.487       .  S
C669        C908   1.484       .  S
C670        C671   1.399       .  A
C670        C881   1.472       .  S
C671        C672   1.401       .  A
C671        H676   1.084       .  S
C672        C673   1.402       .  A
C672        C941   1.473       .  S
C673        H677   1.084       .  S
C674        C675   1.404       .  A
C674        C928   1.478       .  S
C675        H678   1.084       .  S
C679        C680   1.404       .  A
C679        C968   1.481       .  S
C680        C681   1.408       .  A
C680        H685   1.084       .  S
C681        C682   1.403       .  A
C681        C921   1.480       .  S
C682        H686   1.084   1_556  S
C683        C684   1.401       .  A
C683        C911   1.473       .  S
C684        H687   1.084       .  S
C688        C689   1.406       .  A
C688        C868   1.484       .  S
C689        C690   1.407       .  A
C689        H694   1.083       .  S
C690        C691   1.404       .  A
C690        C901   1.483       .  S
C691        H695   1.084       .  S
C692        C693   1.402       .  A
C692        C888   1.478       .  S
C693        H696   1.084       .  S
C697        C698   1.400       .  A
C697       C1031   1.479       .  S
C698        C699   1.398       .  A
C698        H703   1.084       .  S
C699        C700   1.400       .  A
C699        C961   1.474       .  S
C700        H704   1.084   1_556  S
C701        C702   1.406       .  A
C701        C951   1.478       .  S
C702        H705   1.083       .  S
N706        N707   1.318       .  A
N706        N712   1.314       .  A
N706       Mn735   2.180       .  S
N707        C714   1.352       .  A
N708        N710   1.314       .  A
N708        N709   1.316       .  A
N708       Mn724   2.188       .  S
N709        C715   1.352       .  A
N710        N711   1.318       .  A
N710       Mn735   2.186       .  S
N711        C715   1.352       .  A
N712        N713   1.315       .  A
N712       Mn724   2.186       .  S
N713        C714   1.351       .  A
C714        C858   1.472       .  S
C715        C851   1.474       .  S
N716        N722   1.314       .  A
N716        N717   1.324       .  A
N716       Mn746   2.217       .  S
N717        C725   1.358       .  A
N718        N719   1.316       .  A
N718        N720   1.315       .  A
N718       Mn724   2.190       .  S
N719        C726   1.351       .  A
N720        N721   1.324       .  A
N720       Mn746   2.218       .  S
N721        C726   1.358       .  A
N722        N723   1.316       .  A
N722       Mn724   2.186       .  S
N723        C725   1.350       .  A
Mn724      Cl748   2.526       .  S
C725        C828   1.487       .  S
C726        C838   1.487       .  S
N727        N728   1.321       .  A
N727        N733   1.312       .  A
N727       Mn735   2.189       .  S
N728        C736   1.354       .  A
N729        N731   1.313       .  A
N729        N730   1.316       .  A
N729       Mn747   2.189       .  S
N730        C737   1.352       .  A
N731        N732   1.321       .  A
N731       Mn735   2.198       .  S
N732        C737   1.355       .  A
N733        N734   1.314       .  A
N733       Mn747   2.182       .  S
N734        C736   1.350       .  A
Mn735      Cl748   2.560       .  S
C736        C791   1.476       .  S
C737        C798   1.481       .  S
N738        N739   1.323       .  A
N738        N744   1.315       .  A
N738       Mn746   2.219       .  S
N739        C749   1.358       .  A
N740        N741   1.314       .  A
N740        N742   1.315       .  A
N740       Mn747   2.178       .  S
N741        C750   1.348       .  A
N742        N743   1.323       .  A
N742       Mn746   2.211       .  S
N743        C750   1.357       .  A
N744        N745   1.315       .  A
N744       Mn747   2.178       .  S
N745        C749   1.349       .  A
Mn746      Cl748   2.563       .  S
Mn747      Cl748   2.525       .  S
C749        C818   1.482       .  S
C750        C811   1.480       .  S
C751        C756   1.399   1_554  A
C751        C981   1.472       .  S
C752        C753   1.400       .  A
C752        H757   1.084       .  S
C753        C754   1.399       .  A
C753        C861   1.464       .  S
C754        H758   1.085       .  S
C755        C756   1.397       .  A
C755        C848   1.460       .  S
C756        H759   1.084       .  S
C760        C765   1.397   1_554  A
C760        C878   1.473   1_554  S
C761        C762   1.403       .  A
C761        H766   1.084       .  S
C762        C763   1.402       .  A
C762        C801   1.473       .  S
C763        H767   1.084       .  S
C764        C765   1.402       .  A
C764        C788   1.472       .  S
C765        H768   1.084       .  S
C769        C774   1.401   1_554  A
C769        C871   1.483       .  S
C770        C771   1.406       .  A
C770        H775   1.084       .  S
C771        C841   1.481       .  S
C772        C773   1.404   1_554  A
C773        C774   1.402       .  A
C773        C831   1.477       .  S
C774        H777   1.084       .  S
C778        C783   1.403   1_554  A
C778       C1058   1.481       .  S
C779        C780   1.404       .  A
C779        H784   1.084       .  S
C780        C781   1.400       .  A
C780        C821   1.473       .  S
C781        H785   1.084       .  S
C782        C783   1.404       .  A
C782        C808   1.475       .  S
C783        H786   1.084       .  S
C787        C788   1.402       .  A
C787        C792   1.388       .  A
C787        F794   1.359       .  S
C788        C789   1.404       .  A
C789        C790   1.401       .  A
C789        F796   1.358       .  S
C790        C791   1.410       .  A
C790        F795   1.358       .  S
C791        C792   1.408       .  A
C792        F793   1.358       .  S
C797        C798   1.410       .  A
C797        C802   1.393       .  A
C797        F804   1.358       .  S
C798        C799   1.410       .  A
C799        C800   1.400       .  A
C799        F806   1.357       .  S
C800        C801   1.403       .  A
C800        F805   1.358       .  S
C801        C802   1.403       .  A
C802        F803   1.358       .  S
C807        C808   1.402       .  A
C807        C812   1.392       .  A
C807        F814   1.359       .  S
C808        C809   1.405       .  A
C809        C810   1.401       .  A
C809        F816   1.358       .  S
C810        C811   1.409       .  A
C810        F815   1.358       .  S
C811        C812   1.410       .  A
C812        F813   1.358       .  S
C817        C818   1.409       .  A
C817        C822   1.400       .  A
C817        F824   1.357       .  S
C818        C819   1.413       .  A
C819        C820   1.394       .  A
C819        F826   1.358       .  S
C820        C821   1.401       .  A
C820        F825   1.359       .  S
C821        C822   1.404       .  A
C822        F823   1.358       .  S
C827        C828   1.411       .  A
C827        C832   1.404       .  A
C827        F834   1.357       .  S
C828        C829   1.412       .  A
C829        C830   1.394       .  A
C829        F836   1.358       .  S
C830        C831   1.402       .  A
C830        F835   1.359       .  S
C831        C832   1.404       .  A
C832        F833   1.357       .  S
C837        C838   1.410       .  A
C837        C842   1.404       .  A
C837        F844   1.357       .  S
C838        C839   1.412       .  A
C839        C840   1.395       .  A
C839        F846   1.358       .  S
C840        C841   1.403       .  A
C840        F845   1.358       .  S
C841        C842   1.405       .  A
C842        F843   1.357       .  S
C847        C848   1.400       .  A
C847        C852   1.391       .  A
C847        F854   1.359       .  S
C848        C849   1.398       .  A
C849        C850   1.396       .  A
C849        F856   1.358       .  S
C850        C851   1.411       .  A
C850        F855   1.357       .  S
C851        C852   1.409       .  A
C852        F853   1.358       .  S
C857        C858   1.408       .  A
C857        C862   1.390       .  A
C857        F864   1.358       .  S
C858        C859   1.410       .  A
C859        C860   1.396       .  A
C859        F866   1.358       .  S
C860        C861   1.401       .  A
C860        F865   1.358       .  S
C861        C862   1.401       .  A
C862        F863   1.358       .  S
C867        C872   1.398       .  A
C867        F874   1.358       .  S
C868        C869   1.407       .  A
C869        C870   1.400       .  A
C869        F876   1.358       .  S
C870        C871   1.407   1_556  A
C870        F875   1.358       .  S
C872        F873   1.358       .  S
C877        C882   1.396       .  A
C877        F884   1.358       .  S
C878        C879   1.407       .  A
C879        C880   1.397       .  A
C879        F886   1.358       .  S
C880        C881   1.404       .  A
C880        F885   1.358       .  S
C882        F883   1.358       .  S
C887        C888   1.405       .  A
C887        C892   1.401       .  A
C887        F894   1.358       .  S
C888        C889   1.403       .  A
C889        C890   1.395       .  A
C889        F896   1.358       .  S
C890        C891   1.411       .  A
C890        F895   1.358       .  S
C891        C892   1.409       .  A
C892        F893   1.357       .  S
C897        C898   1.408       .  A
C897        C902   1.402       .  A
C897        F904   1.358       .  S
C898        C899   1.410       .  A
C899        C900   1.396       .  A
C899        F906   1.358       .  S
C900        C901   1.404       .  A
C900        F905   1.358       .  S
C901        C902   1.408       .  A
C902        F903   1.358       .  S
C907        C908   1.408       .  A
C907        C912   1.395       .  A
C907        F914   1.357       .  S
C908        C909   1.414       .  A
C909        C910   1.401       .  A
C909        F916   1.358   1_655  S
C910        C911   1.401       .  A
C910        F915   1.358   1_655  S
C911        C912   1.403       .  A
C912        F913   1.358       .  S
C917        C918   1.409       .  A
C917        C922   1.396       .  A
C917        F924   1.357       .  S
C918        C919   1.412   1_655  A
C919        C920   1.403   1_455  A
C919        F926   1.358       .  S
C920        C921   1.404       .  A
C920        F925   1.358   1_655  S
C921        C922   1.404       .  A
C922        F923   1.358       .  S
C927        C928   1.406       .  A
C927        C932   1.401       .  A
C927        F934   1.358       .  S
C928        C929   1.403       .  A
C929        C930   1.394       .  A
C929        F936   1.358       .  S
C930        C931   1.409       .  A
C930        F935   1.358       .  S
C931        C932   1.409       .  A
C932        F933   1.358       .  S
C937        C938   1.409       .  A
C937        C942   1.393       .  A
C937        F944   1.358       .  S
C938        C939   1.408       .  A
C939        C940   1.398       .  A
C939        F946   1.358       .  S
C940        C941   1.404       .  A
C940        F945   1.358       .  S
C941        C942   1.404       .  A
C942        F943   1.358       .  S
C947        C948   1.409       .  A
C947        C952   1.398       .  A
C947        F954   1.358       .  S
C948        C949   1.408       .  A
C949        C950   1.396       .  A
C949        F956   1.358       .  S
C950        C951   1.406       .  A
C950        F955   1.358       .  S
C951        C952   1.405       .  A
C952        F953   1.358       .  S
C957        C958   1.411       .  A
C957        C962   1.399       .  A
C957        F964   1.358       .  S
C958        C959   1.406       .  A
C959        C960   1.393       .  A
C959        F966   1.358       .  S
C960        C961   1.405       .  A
C960        F965   1.358       .  S
C961        C962   1.402       .  A
C962        F963   1.358       .  S
C967        C968   1.406       .  A
C967        C972   1.405       .  A
C967        F974   1.358       .  S
C969        C970   1.395       .  A
C969        F976   1.358       .  S
C970        F975   1.358       .  S
C971        C972   1.408       .  A
C972        F973   1.358       .  S
C977        C978   1.406       .  A
C977        C982   1.396       .  A
C977        F984   1.358       .  S
C979        C980   1.394       .  A
C979        F986   1.358       .  S
C980        F985   1.358       .  S
C981        C982   1.405   1_554  A
C982        F983   1.358       .  S
C987        C988   1.404       .  A
C987        C992   1.401       .  A
C987        F994   1.358       .  S
C988        C989   1.405       .  A
C989        C990   1.397       .  A
C989        F996   1.358       .  S
C990        C991   1.409       .  A
C990        F995   1.358       .  S
C991        C992   1.412       .  A
C992        F993   1.358       .  S
C997        C998   1.409       .  A
C997       C1002   1.402       .  A
C997       F1004   1.358       .  S
C998        C999   1.408       .  A
C999       C1000   1.398       .  A
C999       F1006   1.358       .  S
C1000      C1001   1.407       .  A
C1000      F1005   1.358       .  S
C1001      C1002   1.407       .  A
C1002      F1003   1.358       .  S
C1007      C1008   1.408       .  A
C1007      C1012   1.394       .  A
C1007      F1014   1.358       .  S
C1008      C1009   1.409       .  A
C1009      C1010   1.399       .  A
C1009      F1016   1.358       .  S
C1010      C1011   1.404       .  A
C1010      F1015   1.358       .  S
C1011      C1012   1.404       .  A
C1012      F1013   1.358       .  S
C1017      C1018   1.409       .  A
C1017      C1022   1.399       .  A
C1017      F1024   1.357       .  S
C1018      C1019   1.411       .  A
C1019      C1020   1.396       .  A
C1019      F1026   1.358       .  S
C1020      C1021   1.402       .  A
C1020      F1025   1.358       .  S
C1021      C1022   1.403       .  A
C1022      F1023   1.358       .  S
C1027      C1028   1.406       .  A
C1027      C1032   1.391       .  A
C1027      F1034   1.358       .  S
C1029      C1030   1.401       .  A
C1029      F1036   1.358       .  S
C1030      F1035   1.358       .  S
C1031      C1032   1.407       .  A
C1032      F1033   1.358       .  S
C1037      C1038   1.407   1_545  A
C1037      C1042   1.399   1_545  A
C1037      F1044   1.358       .  S
C1038      C1039   1.407       .  A
C1039      C1040   1.397       .  A
C1039      F1046   1.358       .  S
C1040      C1041   1.408       .  A
C1040      F1045   1.358       .  S
C1041      C1042   1.407       .  A
C1042      F1043   1.358   1_565  S
C1047      C1048   1.406       .  A
C1047      C1052   1.401   1_565  A
C1047      F1054   1.358   1_565  S
C1048      C1049   1.406       .  A
C1049      C1050   1.394       .  A
C1049      F1056   1.358       .  S
C1050      C1051   1.407       .  A
C1050      F1055   1.358       .  S
C1051      C1052   1.410   1_565  A
C1052      F1053   1.358       .  S
C1057      C1058   1.406   1_556  A
C1057      C1062   1.400       .  A
C1057      F1064   1.358       .  S
C1059      C1060   1.400       .  A
C1059      F1066   1.358       .  S
C1060      C1061   1.406       .  A
C1060      F1065   1.358       .  S
C1062      F1063   1.358       .  S
C1067      C1068   1.411       .  A
C1067      C1072   1.396       .  A
C1067      F1074   1.358       .  S
C1068      C1069   1.411       .  A
C1069      C1070   1.403       .  A
C1069      F1076   1.358       .  S
C1070      C1071   1.405       .  A
C1070      F1075   1.358       .  S
C1071      C1072   1.401       .  A
C1072      F1073   1.358       .  S
C1077      C1078   1.405       .  A
C1077      C1082   1.398       .  A
C1077      F1084   1.358       .  S
C1078      C1079   1.406       .  A
C1079      C1080   1.400       .  A
C1079      F1086   1.358       .  S
C1080      C1081   1.409       .  A
C1080      F1085   1.358       .  S
C1081      C1082   1.409       .  A
C1082      F1083   1.358       .  S
