geometry optimzed in LAMMPS
_audit_creation_date              2020-12-01 
_audit_creation_method            'lammps2cif' 
_symmetry_space_group_name_H-M    'P1' 
_symmetry_Int_Tables_number       1 
_symmetry_cell_setting            triclinic 
loop_ 
_symmetry_equiv_pos_as_xyz 
  x,y,z 
_cell_length_a                    24.01942811 
_cell_length_b                    44.835636537858335 
_cell_length_c                    45.021889163652645 
_cell_angle_alpha                 96.66725164526734 
_cell_angle_beta                  88.8565874096543 
_cell_angle_gamma                 90.10181350860877 
loop_ 
_atom_site_label 
_atom_site_type_symbol 
_atom_site_fract_x 
_atom_site_fract_y 
_atom_site_fract_z 
_atom_site_charge 
C1          C  0.23140583  0.12038250  0.12690603    -0.01900
C2          C  0.13786484  0.22223844  0.21204449     0.30600
C3          C  0.12239865  0.27502098  0.25003628     0.30600
C4          C  0.16343445  0.25082505  0.20143586    -0.05600
C5          C  0.07653256  0.23243176  0.21799257    -0.06400
C6          C  0.15828690  0.22237246  0.24434895    -0.06200
C7          C  0.15763992  0.27710437  0.22107532    -0.05600
C8          C  0.07012239  0.25928961  0.23740144    -0.06400
C9          C  0.15191089  0.24923621  0.26374607    -0.06300
C10         C  0.17033967  0.30024100  0.20452765    -0.31600
N11         N  0.17920952  0.28984057  0.17542789     0.14900
C12         C  0.17433321  0.25944414  0.17311101    -0.31600
H13         H  0.17655827  0.24454033  0.15244515     0.16800
C14         C  0.01516825  0.26599984  0.24025498    -0.30600
N15         N  0.98667914  0.24443181  0.22338606     0.13600
C16         C  0.02317370  0.22389659  0.20934006    -0.30600
C17         C  0.14706848  0.24045589  0.29222901    -0.30900
N18         N  0.14539557  0.21022210  0.29107621     0.14100
H19         H  0.14581627  0.25509775  0.31272713     0.16700
C20         C  0.15331611  0.19921363  0.26191802    -0.30900
H21         H  0.15224500  0.17589277  0.25290101     0.16700
H22         H  0.01150218  0.20460041  0.19411153     0.16700
H23         H  0.17098503  0.32366550  0.21245600     0.16800
H24         H  0.99750635  0.28559179  0.25330317     0.16700
C25         C  0.22894831  0.36814526  0.31074207    -0.01900
C26         C  0.42016314  0.09141645  0.20216798     0.30600
C27         C  0.50004848  0.09607012  0.24515227     0.30600
C28         C  0.41911222  0.12075140  0.22342557    -0.05600
C29         C  0.41680558  0.06786982  0.22456825    -0.06400
C30         C  0.48090438  0.08810847  0.19097058    -0.06200
C31         C  0.45976243  0.12289013  0.24599470    -0.05600
C32         C  0.45786595  0.07075907  0.24710432    -0.06400
C33         C  0.52047723  0.09042375  0.21293463    -0.06300
C34         C  0.43182185  0.13449211  0.27189581    -0.31600
N35         N  0.37832374  0.13959538  0.26623796     0.14900
C36         C  0.37026601  0.13235258  0.23691681    -0.31600
H37         H  0.32924513  0.12894010  0.22755830     0.16800
C38         C  0.46480995  0.04333248  0.25656396    -0.30600
N39         N  0.43053842  0.52407026  0.23636396     0.13600
C40         C  0.40399344  0.03794864  0.22017320    -0.30600
C41         C  0.57173057  0.08817053  0.19937234    -0.30900
N42         N  0.56531681  0.08627633  0.16935634     0.14100
H43         H  0.61094273  0.09034159  0.21081968     0.16700
C44         C  0.50968988  0.08507851  0.16399037    -0.30900
H45         H  0.49140786  0.08513332  0.14225617     0.16700
H46         H  0.38053006  0.52735948  0.19774597     0.16700
H47         H  0.44610568  0.13248282  0.29425738     0.16800
H48         H  0.49705574  0.53573698  0.26645828     0.16700
C49         C  0.68557458  0.15451848  0.08908214    -0.01900
C50         C  0.23240581  0.14779430  0.37094145    -0.01900
C51         C  0.78727497  0.23737788  0.18537778     0.30600
C52         C  0.78635492  0.27638323  0.23708624     0.30600
C53         C  0.74756105  0.22933161  0.21115598    -0.05600
C54         C  0.84339352  0.23939583  0.20255745    -0.06400
C55         C  0.77791753  0.27095570  0.18194289    -0.06200
C56         C  0.74544644  0.25026870  0.23663029    -0.05600
C57         C  0.84164307  0.25934334  0.22968246    -0.06400
C58         C  0.77997842  0.29012999  0.20807692    -0.06300
C59         C  0.73674164  0.23425943  0.26069454    -0.31600
N60         N  0.73463198  0.20428143  0.25216051     0.14900
C61         C  0.74135907  0.20116851  0.22176642    -0.31600
H62         H  0.74801507  0.18008327  0.20805360     0.16800
C63         C  0.89399586  0.26153117  0.24054954    -0.30600
N64         N  0.92825998  0.24419825  0.22138367     0.13600
C65         C  0.89843005  0.23057651  0.19823647    -0.30600
C66         C  0.80067012  0.31717354  0.20107851    -0.30900
N67         N  0.80634166  0.31691608  0.17113708     0.14100
H68         H  0.81228818  0.33555293  0.21747135     0.16700
C69         C  0.79459225  0.28817287  0.15931530    -0.30900
H70         H  0.79871165  0.27959151  0.13597132     0.16700
H71         H  0.91662818  0.21724176  0.17904964     0.16700
H72         H  0.74186250  0.24419023  0.28344521     0.16800
H73         H  0.90663624  0.27605894  0.26008932     0.16700
C74         C  0.69635470  0.39577587  0.11599283    -0.01900
C75         C  0.68465842  0.11347878  0.33318037    -0.01900
C76         C  0.40151754  0.41414428  0.23102604     0.30600
C77         C  0.50131820  0.42115346  0.20106539     0.30600
C78         C  0.40032337  0.40726444  0.19696826    -0.05600
C79         C  0.42547469  0.44585880  0.23388977    -0.06400
C80         C  0.44979414  0.39577784  0.24039722    -0.06200
C81         C  0.45156135  0.41023869  0.18146331    -0.05600
C82         C  0.47702193  0.44965135  0.21890198    -0.06400
C83         C  0.50132547  0.40058541  0.22630633    -0.06300
C84         C  0.43788604  0.42039479  0.15461471    -0.31600
N85         N  0.38223839  0.42448358  0.15333296     0.14900
C86         C  0.35980056  0.41727918  0.17932351    -0.28000
H87         H  0.31689327  0.42124448  0.18641054     0.16800
C88         C  0.48777255  0.98015665  0.22294499    -0.30600
N89         N  0.44203899  0.99338757  0.23669232     0.13600
C90         C  0.40444576  0.97302426  0.24346231    -0.30600
C91         C  0.54012379  0.40087812  0.24872070    -0.30900
N92         N  0.51507228  0.39457249  0.27423347     0.14100
H93         H  0.58371425  0.40676460  0.24697453     0.16700
C94         C  0.46054717  0.39079791  0.26936460    -0.30900
H95         H  0.43014028  0.38684944  0.28654366     0.16700
H96         H  0.36274749  0.97809030  0.25206734     0.16700
H97         H  0.46749283  0.42704289  0.13833876     0.16800
H98         H  0.52224940  0.99198071  0.21392554     0.16700
C99         C  0.24232228  0.36687492  0.08346391    -0.01900
C100        C  0.68128402  0.34642241  0.34355210    -0.01900
C101        C  0.49667661  0.22794491  0.05566363     0.30600
C102        C  0.41807683  0.27265983  0.06152547     0.30600
C103        C  0.50295269  0.25175584  0.08290268    -0.05600
C104        C  0.49590005  0.24820161  0.03015695    -0.06400
C105        C  0.43522321  0.21806745  0.05687316    -0.06200
C106        C  0.46205865  0.27466574  0.08606050    -0.05600
C107        C  0.45601838  0.27147889  0.03386025    -0.06400
C108        C  0.39648835  0.24091017  0.05982907    -0.06300
C109        C  0.48988620  0.30096581  0.09511896    -0.31600
N110        N  0.54469702  0.29581218  0.09654677     0.14900
C111        C  0.55296203  0.26605433  0.08991642    -0.31600
H112        H  0.59332852  0.25642921  0.08373083     0.16800
C113        C  0.44626380  0.28751721  0.50970593    -0.30600
N114        N  0.47795868  0.27145505  0.48892448     0.13600
C115        C  0.50530465  0.24946814  0.50093248    -0.30600
C116        C  0.34468474  0.22857514  0.05930122    -0.30900
N117        N  0.34961077  0.19828256  0.05745264     0.14100
H118        H  0.30675879  0.24142357  0.06033062     0.16700
C119        C  0.40514054  0.19170050  0.05487706    -0.30900
H120        H  0.42284317  0.16941231  0.05334662     0.16700
H121        H  0.52635491  0.23072573  0.48812799     0.16700
H122        H  0.47231255  0.32310730  0.09493356     0.16800
H123        H  0.41538035  0.30365360  0.50481951     0.16700
C124        C  0.51657972  0.26222334  0.38296545     0.30600
C125        C  0.42596503  0.22658696  0.39112629     0.30600
C126        C  0.52941696  0.22927900  0.38687585    -0.05600
C127        C  0.48045008  0.27180029  0.41088216    -0.06400
C128        C  0.47349992  0.26064965  0.35809672    -0.06200
C129        C  0.48332147  0.21150131  0.39188928    -0.05600
C130        C  0.43298922  0.25351318  0.41501268    -0.06400
C131        C  0.42743160  0.24161397  0.36183853    -0.06300
C132        C  0.50271800  0.18957761  0.40825255    -0.31600
N133        N  0.55906288  0.18983203  0.40862464     0.14900
C134        C  0.57528117  0.21542801  0.39748807    -0.31600
H135        H  0.61775982  0.22326990  0.39661847     0.16800
C136        C  0.42603677  0.25336972  0.44525696    -0.30600
N137        N  0.46613291  0.27046069  0.45888424     0.13600
C138        C  0.49996034  0.28114354  0.43881902    -0.30600
C139        C  0.38267529  0.25488670  0.34967298    -0.30900
N140        N  0.39761319  0.28152490  0.34057399     0.14100
H141        H  0.34000509  0.24752103  0.35115761     0.16700
C142        C  0.45281289  0.28508326  0.34536768    -0.30900
H143        H  0.47565594  0.30554316  0.34319594     0.16700
H144        H  0.54036368  0.29081521  0.44414367     0.16700
H145        H  0.47771238  0.17387908  0.41923046     0.16800
H146        H  0.39967630  0.23824292  0.45629950     0.16700
O147        O  0.04981727  0.05637946  0.03540331    -0.74700
O148        O  0.11779764  0.02768167  0.51440445    -0.53600
C149        C  0.10121470  0.04876903  0.03357176     0.79000
O150        O  0.86245930  0.45007669  0.02934688    -0.59300
O151        O  0.79506898  0.47277765  0.50148306    -0.52300
C152        C  0.81200541  0.45749860  0.02434876     0.71100
O153        O  0.04631353  0.43752290  0.02156173    -0.73800
O154        O  0.11807376  0.45869995  0.49846905    -0.54400
C155        C  0.09877698  0.43912383  0.01527352     0.77100
O156        O  0.87286770  0.06640091  0.02296489    -0.59000
O157        O  0.79943663  0.04107345  0.49378622    -0.52100
C158        C  0.82181750  0.06306026  0.01571008     0.73600
Zr159      Zr  0.96295755  0.04515566  0.01116847     2.54700
O160        O  0.94812144  0.04888958  0.06512016    -0.79600
O161        O  0.97653776  0.09865313  0.00867396    -0.93000
Zr162      Zr  0.95356749  0.45719527  0.50799825     2.64700
O163        O  0.95997302  0.46553682  0.06412405    -0.97900
O164        O  0.94111757  0.40298715  0.50427117    -0.80000
O165        O  0.01449471  0.50070702  0.01241562    -0.83300
O166        O  0.90402235  0.00313431  0.00884833    -2.18100
O167        O  0.88382448  0.05058530  0.40348395    -0.66700
O168        O  0.80975116  0.02744132  0.42356835    -0.51300
C169        C  0.83142502  0.04462027  0.40478601     0.72000
O170        O  0.05934684  0.43770205  0.40217614    -0.59600
O171        O  0.12641333  0.46280843  0.43065660    -0.51600
C172        C  0.11048150  0.44385081  0.40830866     0.73800
O173        O  0.87562729  0.43163311  0.40519142    -0.71000
O174        O  0.80481082  0.45797089  0.43112249    -0.49700
C175        C  0.82382022  0.43652209  0.41179652     0.75200
O176        O  0.06621604  0.05477199  0.41610890    -0.66400
O177        O  0.12961332  0.03262335  0.44404104    -0.53600
C178        C  0.11599821  0.05126072  0.42529025     0.73600
Zr179      Zr  0.97149910  0.03773419  0.42546207     2.77500
O180        O  0.98790388  0.03299968  0.37149429    -0.97100
O181        O  0.96491882  0.09226080  0.43353516    -0.77900
Zr182      Zr  0.96605698  0.45159471  0.42088185     2.70100
O183        O  0.96490223  0.45191109  0.36686824    -0.79200
O184        O  0.97560224  0.39749560  0.42068322    -0.98300
Zr185      Zr  0.07534144  0.49676201  0.47015267     2.21500
Zr186      Zr  0.84915584  0.99884551  0.46359814     2.11100
O187        O  0.91325371  0.99452455  0.42139867    -2.47000
O188        O  0.02460656  0.99321620  0.42510626    -0.79000
O189        O  0.90943789  0.04173314  0.46722198    -0.71200
O190        O  0.01536938  0.45341001  0.46581759    -2.32100
O191        O  0.02115210  0.04032732  0.47089604    -2.28300
O192        O  0.90368948  0.45461945  0.46283298    -0.72900
H193        H  0.87888282  0.50560912  0.02681074     0.79100
H194        H  0.03693367  0.43513606  0.46452453     0.80100
H195        H  0.89329721  0.99285143  0.40287151     0.82400
H196        H  0.04438298  0.05799807  0.47336237     0.80000
H197        H  0.91049548  0.39870669  0.48999806     0.43000
H198        H  0.94101308  0.39112643  0.43048065     0.42000
H199        H  0.96834896  0.43051142  0.35867583     0.41700
H200        H  0.95167048  0.02712281  0.36247834     0.39600
H201        H  0.98827990  0.09821259  0.45110281     0.42700
H202        H  0.00518739  0.10137343  0.50941533     0.37500
H203        H  0.95769448  0.06992379  0.07241192     0.43600
H204        H  0.96375746  0.44508007  0.07010411     0.40000
H205        H  0.99394211  0.05384837  0.36690491     0.45000
H206        H  0.94579480  0.10450773  0.99621366     0.43700
H207        H  0.99653943  0.47510602  0.06850612     0.43800
H208        H  0.97223941  0.38926801  0.39941481     0.44200
C209        C  0.71825732  0.37041780  0.36207682    -0.04900
C210        C  0.72679381  0.37014646  0.39308666    -0.32300
C211        C  0.75780664  0.39266999  0.40973972     0.37000
C212        C  0.78426968  0.41530156  0.39558773    -0.05200
C213        C  0.77918602  0.41492959  0.36466668    -0.32200
C214        C  0.74611491  0.39338370  0.34805887     0.36900
H215        H  0.70971598  0.35249598  0.40491083     0.17200
O216        O  0.76398959  0.39157633  0.43976837    -0.59700
H217        H  0.80104337  0.43156191  0.35320889     0.17200
O218        O  0.74218313  0.39469872  0.31786006    -0.59800
H219        H  0.72307920  0.41390059  0.31568632     0.44200
H220        H  0.73423629  0.40483336  0.44943920     0.44200
C221        C  0.56735894  0.28251979  0.37806424    -0.04900
C222        C  0.56842576  0.31269365  0.39089025    -0.32300
C223        C  0.61062520  0.33255908  0.38382971     0.37000
C224        C  0.65376609  0.32293112  0.36267353    -0.05200
C225        C  0.65625614  0.29178111  0.35299920    -0.32200
C226        C  0.61220052  0.27239883  0.35888547     0.36900
H227        H  0.53392445  0.32206508  0.40466525     0.17200
O228        O  0.60551942  0.36234308  0.39493958    -0.59700
H229        H  0.68679356  0.28270416  0.33659072     0.17200
O230        O  0.61034455  0.24449239  0.34293428    -0.59800
H231        H  0.64547003  0.23467160  0.34746556     0.44200
H232        H  0.57055855  0.36951420  0.38675581     0.44200
C233        C  0.20052394  0.37701221  0.06023129    -0.04900
C234        C  0.22213075  0.39016841  0.03514104    -0.32300
C235        C  0.19073794  0.41042889  0.02024114     0.37000
C236        C  0.13511494  0.41722970  0.02914203    -0.05200
C237        C  0.11178438  0.40171096  0.05178650    -0.32200
C238        C  0.14303158  0.38241663  0.06730938     0.36900
H239        H  0.26545115  0.38677012  0.02859195     0.17200
O240        O  0.21518270  0.42351375  0.99720357    -0.59700
H241        H  0.06873756  0.40547387  0.05884566     0.17200
O242        O  0.11631528  0.37037686  0.09030976    -0.59800
H243        H  0.11300686  0.38692985  0.10689065     0.44200
H244        H  0.23994601  0.43932254  0.00689991     0.44200
C245        C  0.28726760  0.34224112  0.07328446    -0.04900
C246        C  0.32509668  0.33694367  0.09576002    -0.32300
C247        C  0.36111434  0.31292544  0.09335753     0.37000
C248        C  0.37113494  0.29633332  0.06539082    -0.05200
C249        C  0.33383005  0.30076218  0.04213910    -0.32200
C250        C  0.29124168  0.32297084  0.04614826     0.36900
H251        H  0.32461395  0.35081128  0.11685887     0.17200
O252        O  0.38099999  0.30384218  0.11934680    -0.59700
H253        H  0.33642699  0.28630365  0.02117592     0.17200
O254        O  0.25425082  0.32510378  0.02374187    -0.59800
H255        H  0.22381462  0.30819121  0.52554399     0.44200
H256        H  0.39815940  0.32169141  0.13075943     0.44200
C257        C  0.62866412  0.36056177  0.33069635    -0.04900
C258        C  0.61715316  0.39177015  0.33453640    -0.32300
C259        C  0.57628962  0.40371973  0.31752329     0.37000
C260        C  0.54382494  0.38436372  0.29830299    -0.05200
C261        C  0.54788285  0.35365053  0.29837167    -0.32200
C262        C  0.59026470  0.34151075  0.31340545     0.36900
H263        H  0.64085689  0.40724713  0.34949349     0.17200
O264        O  0.56863367  0.43419005  0.31951621    -0.59700
H265        H  0.52205976  0.33886009  0.28366762     0.17200
O266        O  0.59656361  0.31092475  0.30874229    -0.59800
H267        H  0.60814227  0.30598964  0.28746813     0.44200
H268        H  0.59307931  0.44102592  0.30363971     0.44200
C269        C  0.35063846  0.43016722  0.12758673    -0.04900
C270        C  0.29336594  0.43709922  0.13127716    -0.32300
C271        C  0.25471374  0.42052848  0.11291932     0.37000
C272        C  0.27534162  0.39636267  0.09285029    -0.05200
C273        C  0.32994985  0.40022544  0.08145994    -0.32200
C274        C  0.36836175  0.41694445  0.09915797     0.36900
H275        H  0.27825108  0.45060532  0.15130215     0.17200
O276        O  0.19905598  0.42304827  0.11996200    -0.59700
H277        H  0.34532107  0.38688454  0.06139358     0.17200
O278        O  0.42346776  0.41633232  0.09048788    -0.59800
H279        H  0.43621130  0.39542714  0.09147990     0.44200
H280        H  0.18540552  0.43907956  0.10852881     0.44200
C281        C  0.79543616  0.05877683  0.38246169    -0.04900
C282        C  0.74014834  0.04971499  0.37693081    -0.32300
C283        C  0.70575413  0.06401187  0.35737664     0.37000
C284        C  0.72540358  0.08884380  0.34284022    -0.05200
C285        C  0.78252458  0.09571937  0.34639374    -0.32200
C286        C  0.81683675  0.08121775  0.36540920     0.36900
H287        H  0.72278802  0.03168215  0.38824415     0.17200
O288        O  0.65224382  0.05391129  0.35326791    -0.59700
H289        H  0.80084623  0.11419056  0.33622459     0.17200
O290        O  0.87093420  0.09079727  0.36832910    -0.59800
H291        H  0.89110770  0.08068091  0.35052285     0.44200
H292        H  0.63483341  0.05471211  0.37351963     0.44200
C293        C  0.65366407  0.12472891  0.36341924    -0.04900
C294        C  0.68120683  0.14188028  0.38707515    -0.32300
C295        C  0.64996816  0.16259701  0.40684096     0.37000
C296        C  0.59143495  0.16243133  0.40520661    -0.05200
C297        C  0.56657195  0.13657460  0.39078567    -0.32200
C298        C  0.59671327  0.11793036  0.36946505     0.36900
H299        H  0.72615973  0.14382007  0.38647621     0.17200
O300        O  0.67638690  0.18433468  0.42544902    -0.59700
H301        H  0.52201382  0.13321613  0.39214496     0.17200
O302        O  0.56959981  0.09393050  0.35428132    -0.59800
H303        H  0.53679643  0.10217036  0.34491496     0.44200
H304        H  0.69800678  0.19652148  0.41225183     0.44200
C305        C  0.76905472  0.44663176  0.04543881    -0.04900
C306        C  0.76632650  0.45927125  0.07558730    -0.32300
C307        C  0.73835413  0.44469000  0.09795606     0.37000
C308        C  0.71231785  0.41634966  0.09088403    -0.05200
C309        C  0.71401695  0.40451717  0.06010581    -0.32200
C310        C  0.74090528  0.41941347  0.03788607     0.36900
H311        H  0.78884763  0.47984923  0.08223276     0.17200
O312        O  0.73965430  0.45758793  0.12707660    -0.59700
H313        H  0.69815199  0.38234386  0.05296469     0.17200
O314        O  0.74391901  0.40553183  0.00913810    -0.59800
H315        H  0.71780018  0.41684804  0.99784112     0.44200
H316        H  0.77912127  0.45658660  0.13295683     0.44200
C317        C  0.66391995  0.36696869  0.10297917    -0.04900
C318        C  0.67622357  0.33817621  0.11154158    -0.32300
C319        C  0.63865394  0.31453931  0.10850890     0.37000
C320        C  0.58681986  0.31854609  0.09618741    -0.05200
C321        C  0.57556649  0.34573080  0.08469295    -0.32200
C322        C  0.61273780  0.36984021  0.08841195     0.36900
H323        H  0.71092139  0.33415200  0.12499609     0.17200
O324        O  0.65036086  0.28896134  0.12129472    -0.59700
H325        H  0.53676289  0.34900352  0.07374241     0.17200
O326        O  0.59617148  0.39703877  0.08040917    -0.59800
H327        H  0.59352453  0.39414227  0.05830172     0.44200
H328        H  0.67947827  0.27831201  0.10819165     0.44200
C329        C  0.65413250  0.40854923  0.14208121    -0.04900
C330        C  0.61926664  0.43385335  0.14074419    -0.32300
C331        C  0.57252683  0.44023142  0.16079400     0.37000
C332        C  0.55797959  0.42077427  0.18266206    -0.05200
C333        C  0.59418703  0.39649231  0.18423442    -0.32200
C334        C  0.64076929  0.39061397  0.16551901     0.36900
H335        H  0.62602497  0.44795877  0.12308046     0.17200
O336        O  0.53952027  0.46445201  0.15733748    -0.59700
H337        H  0.58519907  0.37963870  0.19886457     0.17200
O338        O  0.67229873  0.36607649  0.17011282    -0.59800
H339        H  0.64670560  0.34861314  0.16957226     0.44200
H340        H  0.56392026  0.48231236  0.16108966     0.44200
C341        C  0.77249238  0.29978832  0.26441961    -0.04900
C342        C  0.79279622  0.29788000  0.29344995    -0.32300
C343        C  0.76650901  0.31379001  0.31922034     0.37000
C344        C  0.71876885  0.33192113  0.31641493    -0.05200
C345        C  0.70637060  0.33740012  0.28712291    -0.32200
C346        C  0.72757100  0.31998373  0.26220224     0.36900
H347        H  0.82613885  0.28237584  0.29643441     0.17200
O348        O  0.78530732  0.30976446  0.34701881    -0.59700
H349        H  0.67614872  0.35396668  0.28255375     0.17200
O350        O  0.69878574  0.32077501  0.23620308    -0.59800
H351        H  0.70481648  0.34115095  0.23014427     0.44200
H352        H  0.81351205  0.32572507  0.35159222     0.44200
C353        C  0.73249579  0.18157893  0.27334191    -0.04900
C354        C  0.71696551  0.19049688  0.30324893    -0.32300
C355        C  0.70973116  0.17038676  0.32452480     0.37000
C356        C  0.71625490  0.13875515  0.31682185    -0.05200
C357        C  0.73868576  0.13016033  0.28749832    -0.32200
C358        C  0.74587086  0.15079282  0.26598103     0.36900
H359        H  0.70688157  0.21358401  0.31061825     0.17200
O360        O  0.69228582  0.18293064  0.35207712    -0.59700
H361        H  0.74543260  0.10654499  0.28020145     0.17200
O362        O  0.76402228  0.14005210  0.23775510    -0.59800
H363        H  0.80522961  0.14013484  0.23870782     0.44200
H364        H  0.65140432  0.18511164  0.35069319     0.44200
C365        C  0.81057762  0.34397117  0.15604796    -0.04900
C366        C  0.79712650  0.37211332  0.17212520    -0.32300
C367        C  0.76994520  0.39408901  0.15804355     0.37000
C368        C  0.75391189  0.38686201  0.12809140    -0.05200
C369        C  0.78804218  0.36558807  0.11055036    -0.32200
C370        C  0.81462726  0.34297360  0.12456503     0.36900
H371        H  0.80001189  0.37594543  0.19615897     0.17200
O372        O  0.75072425  0.41951353  0.17501124    -0.59700
H373        H  0.78361015  0.36214375  0.08650929     0.17200
O374        O  0.83822838  0.31876946  0.10746131    -0.59800
H375        H  0.80780458  0.30914518  0.09518939     0.44200
H376        H  0.78436988  0.43162430  0.18043548     0.44200
C377        C  0.15884013  0.07126728  0.41322089    -0.04900
C378        C  0.17713001  0.09725776  0.43074794    -0.32300
C379        C  0.20408605  0.12091669  0.41777862     0.37000
C380        C  0.21569167  0.11892429  0.38639122    -0.05200
C381        C  0.19850240  0.09178033  0.36947881    -0.32200
C382        C  0.17076309  0.06864639  0.38238733     0.36900
H383        H  0.16663490  0.10035144  0.45442419     0.17200
O384        O  0.21606532  0.14661983  0.43610109    -0.59700
H385        H  0.20310858  0.08837567  0.34551514     0.17200
O386        O  0.15162243  0.04434128  0.36408091    -0.59800
H387        H  0.18218968  0.02938699  0.36288653     0.44200
H388        H  0.18036509  0.15774605  0.43904743     0.44200
C389        C  0.27664898  0.16787830  0.39009373    -0.04900
C390        C  0.27274721  0.19934133  0.39836994    -0.32300
C391        C  0.32019247  0.21817125  0.40074047     0.37000
C392        C  0.37409118  0.20612240  0.39465211    -0.05200
C393        C  0.37811713  0.17451175  0.39070288    -0.32200
C394        C  0.33104192  0.15579641  0.39159853     0.36900
H395        H  0.23419888  0.21082757  0.40119248     0.17200
O396        O  0.31322938  0.24857670  0.40829006    -0.59700
H397        H  0.41718586  0.16350049  0.38479034     0.17200
O398        O  0.33832766  0.12521244  0.39021124    -0.59800
H399        H  0.36611018  0.11932736  0.37399296     0.44200
H400        H  0.28576782  0.25529928  0.39429396     0.44200
C401        C  0.78388944  0.08501571  0.03327428    -0.04900
C402        C  0.74021185  0.09906172  0.02018600    -0.32300
C403        C  0.70928437  0.12257685  0.03648981     0.37000
C404        C  0.72310112  0.13343154  0.06667256    -0.05200
C405        C  0.76635473  0.11803604  0.07931955    -0.32200
C406        C  0.79591002  0.09451851  0.06339057     0.36900
H407        H  0.72969853  0.09173197  0.99720178     0.17200
O408        O  0.66269277  0.13223370  0.02337840    -0.59700
H409        H  0.77542742  0.12299057  0.10281897     0.17200
O410        O  0.83476522  0.07966367  0.07818254    -0.59800
H411        H  0.86454183  0.09454441  0.08365052     0.44200
H412        H  0.67647680  0.14267696  0.00642080     0.44200
C413        C  0.54132392  0.20331884  0.05679146    -0.04900
C414        C  0.59509541  0.20582436  0.04388560    -0.32300
C415        C  0.64125961  0.18977010  0.05319507     0.37000
C416        C  0.63432628  0.16854169  0.07407856    -0.05200
C417        C  0.57924768  0.16494541  0.08508232    -0.32200
C418        C  0.53527793  0.18308081  0.07843728     0.36900
H419        H  0.60291893  0.22258783  0.02887766     0.17200
O420        O  0.69349949  0.19589150  0.04262933    -0.59700
H421        H  0.57015124  0.15170466  0.10305646     0.17200
O422        O  0.48837707  0.18325059  0.09636457    -0.59800
H423        H  0.49661365  0.19735793  0.11439014     0.44200
H424        H  0.70552680  0.21434638  0.05516138     0.44200
C425        C  0.71735179  0.18165687  0.10727724    -0.04900
C426        C  0.77644038  0.18328046  0.11000639    -0.32300
C427        C  0.80196481  0.20017400  0.13490901     0.37000
C428        C  0.76940148  0.21884319  0.15587535    -0.05200
C429        C  0.71277177  0.22162603  0.14939052    -0.32200
C430        C  0.68669184  0.20320563  0.12685121     0.36900
H431        H  0.80351856  0.17014591  0.09421007     0.17200
O432        O  0.85816901  0.19793228  0.13820692    -0.59700
H433        H  0.68646324  0.23694038  0.16386531     0.17200
O434        O  0.62981527  0.20451835  0.12687108    -0.59800
H435        H  0.62086085  0.22329972  0.11834694     0.44200
H436        H  0.86375468  0.17841461  0.14609114     0.44200
C437        C  0.63822861  0.10510240  0.30958048    -0.04900
C438        C  0.60284026  0.12921852  0.30468509    -0.32300
C439        C  0.56232517  0.12725796  0.28315077     0.37000
C440        C  0.54869195  0.09921644  0.26754654    -0.05200
C441        C  0.58539302  0.07493824  0.27076861    -0.32200
C442        C  0.63057108  0.07787827  0.29091661     0.36900
H443        H  0.60790494  0.15095674  0.31733021     0.17200
O444        O  0.54167166  0.15372690  0.27520667    -0.59700
H445        H  0.58079171  0.05394687  0.25655973     0.17200
O446        O  0.66724973  0.05456100  0.29125412    -0.59800
H447        H  0.68989745  0.05438074  0.27257035     0.44200
H448        H  0.52609359  0.16507005  0.29376356     0.44200
C449        C  0.33563922  0.13963047  0.28858575    -0.04900
C450        C  0.31106516  0.16660454  0.29926723    -0.32300
C451        C  0.27711838  0.16894685  0.32485036     0.37000
C452        C  0.26594530  0.14323324  0.34039610    -0.05200
C453        C  0.29159251  0.11590611  0.32881778    -0.32200
C454        C  0.32528772  0.11396809  0.30297220     0.36900
H455        H  0.32131835  0.18650816  0.28872339     0.17200
O456        O  0.26045996  0.19724466  0.33667372    -0.59700
H457        H  0.29050634  0.09647946  0.34081576     0.17200
O458        O  0.35013397  0.08715569  0.29255956    -0.59800
H459        H  0.38289490  0.08559537  0.30535711     0.44200
H460        H  0.24905055  0.20820106  0.31986359     0.44200
C461        C  0.66426887  0.13222415  0.11105688    -0.04900
C462        C  0.63195550  0.10719874  0.09931029    -0.32300
C463        C  0.60293722  0.08962497  0.11811273     0.37000
C464        C  0.60664020  0.09636982  0.14924019    -0.05200
C465        C  0.64671732  0.11717313  0.16058023    -0.32200
C466        C  0.67658263  0.13421091  0.14200641     0.36900
H467        H  0.62521254  0.10294735  0.07548711     0.17200
O468        O  0.56868235  0.06718338  0.10589891    -0.59700
H469        H  0.65331480  0.12192951  0.18432876     0.17200
O470        O  0.71719182  0.15245645  0.15498693    -0.59800
H471        H  0.74996166  0.13927023  0.15625100     0.44200
H472        H  0.59279138  0.04915283  0.10218060     0.44200
C473        C  0.20757808  0.39091412  0.33803185    -0.04900
C474        C  0.20880470  0.38420776  0.36810314    -0.32300
C475        C  0.18126324  0.40244048  0.39181829     0.37000
C476        C  0.15187947  0.42837193  0.38629015    -0.05200
C477        C  0.15115815  0.43541152  0.35675817    -0.32200
C478        C  0.17771124  0.41721080  0.33303973     0.36900
H479        H  0.22792787  0.36365819  0.37325076     0.17200
O480        O  0.17889475  0.39310704  0.41976290    -0.59700
H481        H  0.12688664  0.45446567  0.35165145     0.17200
O482        O  0.17103388  0.42444877  0.30456816    -0.59800
H483        H  0.19246985  0.44323238  0.30347944     0.44200
H484        H  0.21570122  0.39825882  0.42853703     0.44200
C485        C  0.27146378  0.34406612  0.31962271    -0.04900
C486        C  0.31866713  0.35407689  0.33636070    -0.32300
C487        C  0.36163593  0.33441183  0.34245716     0.37000
C488        C  0.35799730  0.30344172  0.33255679    -0.05200
C489        C  0.31232107  0.29330937  0.31565422    -0.32200
C490        C  0.27129167  0.31292502  0.30781895     0.36900
H491        H  0.32270805  0.37761426  0.34461230     0.17200
O492        O  0.40570317  0.34569234  0.35907397    -0.59700
H493        H  0.30946968  0.26972282  0.30721856     0.17200
O494        O  0.23254899  0.30104007  0.28782582    -0.59800
H495        H  0.25305740  0.28996424  0.27063130     0.44200
H496        H  0.42964666  0.35577176  0.34504415     0.44200
C497        C  0.26407208  0.38404785  0.28712119    -0.04900
C498        C  0.29482558  0.41030466  0.29645813    -0.32300
C499        C  0.33663178  0.42158103  0.27835072     0.37000
C500        C  0.34766943  0.40783851  0.24881881    -0.05200
C501        C  0.31713012  0.38187372  0.23930698    -0.32200
C502        C  0.27844466  0.36931464  0.25820757     0.36900
H503        H  0.29034410  0.42100723  0.31917057     0.17200
O504        O  0.37121998  0.44351219  0.29136585    -0.59700
H505        H  0.32694910  0.36934532  0.21780682     0.17200
O506        O  0.25688511  0.34170739  0.24839437    -0.59800
H507        H  0.28928800  0.32798244  0.24470376     0.44200
H508        H  0.34708106  0.46113758  0.29767489     0.44200
C509        C  0.17547231  0.16063587  0.36136306    -0.04900
C510        C  0.15032661  0.14561023  0.33556157    -0.32300
C511        C  0.13262337  0.16180840  0.31288032     0.37000
C512        C  0.13794503  0.19328667  0.31654918    -0.05200
C513        C  0.14063170  0.20719181  0.34641221    -0.32200
C514        C  0.15568243  0.19007798  0.36934998     0.36900
H515        H  0.15370065  0.12179853  0.32976274     0.17200
O516        O  0.11390976  0.14641148  0.28694420    -0.59700
H517        H  0.13291188  0.23091548  0.35204680     0.17200
O518        O  0.14377772  0.20061852  0.39862304    -0.59800
H519        H  0.11379631  0.18744920  0.40514367     0.44200
H520        H  0.07297687  0.14514059  0.28982037     0.44200
C521        C  0.18955444  0.30960965  0.15252753    -0.04900
C522        C  0.21495905  0.33724007  0.16086647    -0.32300
C523        C  0.22675364  0.35778088  0.14069430     0.37000
C524        C  0.21346677  0.35145734  0.10978993    -0.05200
C525        C  0.18514379  0.32379207  0.10181588    -0.32200
C526        C  0.17318914  0.30321886  0.12262279     0.36900
H527        H  0.22978570  0.34270794  0.18337063     0.17200
O528        O  0.25671524  0.38226544  0.15179167    -0.59700
H529        H  0.17480738  0.31735892  0.07865563     0.17200
O530        O  0.14500660  0.27729532  0.11344612    -0.59800
H531        H  0.17240865  0.26431092  0.10134248     0.44200
H532        H  0.29167106  0.37442595  0.15930211     0.44200
C533        C  0.17421058  0.35253831  0.29882963    -0.04900
C534        C  0.14656573  0.33226146  0.31610407    -0.32300
C535        C  0.11408537  0.30887449  0.30170887     0.37000
C536        C  0.11142661  0.30549768  0.27025041    -0.05200
C537        C  0.11444069  0.33284578  0.25800321    -0.32200
C538        C  0.14910395  0.35593389  0.27115326     0.36900
H539        H  0.15503351  0.33231006  0.33962600     0.17200
O540        O  0.08101066  0.29190092  0.31834337    -0.59700
H541        H  0.09578184  0.33485667  0.23665671     0.17200
O542        O  0.16045229  0.38010227  0.25598625    -0.59800
H543        H  0.12533662  0.39179090  0.25684912     0.44200
H544        H  0.04624548  0.30366404  0.32252485     0.44200
C545        C  0.19238240  0.09732744  0.10824367    -0.04900
C546        C  0.14694989  0.10976568  0.09448669    -0.32300
C547        C  0.12011810  0.09483252  0.06980500     0.37000
C548        C  0.13610191  0.06549069  0.05764621    -0.05200
C549        C  0.18027703  0.05212596  0.07128811    -0.32200
C550        C  0.20814217  0.06745530  0.09623158     0.36900
H551        H  0.13484219  0.13282639  0.10127184     0.17200
O552        O  0.07884515  0.10992480  0.05706194    -0.59700
H553        H  0.19342469  0.02963484  0.06264356     0.17200
O554        O  0.25385535  0.05388962  0.10654468    -0.59800
H555        H  0.23971973  0.03551877  0.11447266     0.44200
H556        H  0.09850201  0.12324682  0.04418906     0.44200
C557        C  0.25253368  0.13930723  0.10196024    -0.04900
C558        C  0.23290291  0.16870005  0.10058994    -0.32300
C559        C  0.25939667  0.18776228  0.08269178     0.37000
C560        C  0.30689002  0.17769257  0.06534496    -0.05200
C561        C  0.31716891  0.14669703  0.06092518    -0.32200
C562        C  0.28983810  0.12735186  0.07863001     0.36900
H563        H  0.19799663  0.17779332  0.11424115     0.17200
O564        O  0.23995180  0.21654761  0.08417900    -0.59700
H565        H  0.34956210  0.13764007  0.04542770     0.17200
O566        O  0.30367776  0.09744098  0.07481693    -0.59800
H567        H  0.34379595  0.09630746  0.07939464     0.44200
H568        H  0.21438242  0.21642686  0.06713411     0.44200
C569        C  0.28259492  0.10676518  0.14216440    -0.04900
C570        C  0.33665836  0.11908622  0.13924056    -0.32300
C571        C  0.38082993  0.11287986  0.15710744     0.37000
C572        C  0.37481212  0.09239468  0.17840869    -0.05200
C573        C  0.32137039  0.07964142  0.18173202    -0.32200
C574        C  0.27568465  0.08711421  0.16445995     0.36900
H575        H  0.34476264  0.13683013  0.12551233     0.17200
O576        O  0.42843279  0.12963646  0.15542563    -0.59700
H577        H  0.31323743  0.06596750  0.19958795     0.17200
O578        O  0.22332723  0.07745090  0.17149723    -0.59800
H579        H  0.22406457  0.05530040  0.16680790     0.44200
H580        H  0.42083060  0.14885849  0.16810104     0.44200
C581        C  0.20278387  0.14252988  0.15304027    -0.04900
C582        C  0.23698959  0.16526631  0.16755310    -0.32300
C583        C  0.21602009  0.18939758  0.18697130     0.37000
C584        C  0.15812336  0.19326760  0.19224918    -0.05200
C585        C  0.12366405  0.16917913  0.18086128    -0.32200
C586        C  0.14560304  0.14356035  0.16236101     0.36900
H587        H  0.28117186  0.16546823  0.16275999     0.17200
O588        O  0.25330842  0.20935264  0.20096339    -0.59700
H589        H  0.08003409  0.16946587  0.18704828     0.17200
O590        O  0.11175241  0.11915839  0.15535405    -0.59800
H591        H  0.07787118  0.12682577  0.14651780     0.44200
H592        H  0.26880052  0.22079091  0.18511872     0.44200
C593        C  0.23009475  0.12172648  0.62566730    -0.01900
C594        C  0.13620705  0.22228374  0.71177741     0.30600
C595        C  0.12030641  0.27446067  0.75048998     0.30600
C596        C  0.16309026  0.25095580  0.70214957    -0.05600
C597        C  0.07497145  0.23274736  0.71683995    -0.06400
C598        C  0.15466295  0.22151005  0.74425870    -0.06200
C599        C  0.15753094  0.27687142  0.72228772    -0.05600
C600        C  0.06814786  0.25938831  0.73654326    -0.06400
C601        C  0.14796586  0.24797834  0.76408874    -0.06300
C602        C  0.16968896  0.30032889  0.70606858    -0.31600
N603        N  0.17787468  0.29055900  0.67679083     0.14900
C604        C  0.17313656  0.26016604  0.67399615    -0.31600
H605        H  0.17429656  0.24559044  0.65311886     0.16800
C606        C  0.01321523  0.26644225  0.73816111    -0.30600
N607        N  0.98526587  0.24522872  0.72039753     0.13600
C608        C  0.02214949  0.22458310  0.70694690    -0.30600
C609        C  0.14222672  0.23849985  0.79228388    -0.30900
N610        N  0.14082988  0.20817516  0.79052523     0.14100
H611        H  0.14119522  0.25268521  0.81304674     0.16700
C612        C  0.14881289  0.19788323  0.76115868    -0.30900
H613        H  0.14739114  0.17482467  0.75141612     0.16700
H614        H  0.01121429  0.20542948  0.69132590     0.16700
H615        H  0.16956842  0.32360474  0.71436012     0.16800
H616        H  0.99527034  0.28602701  0.75107717     0.16700
C617        C  0.22984537  0.36727354  0.81059812    -0.01900
C618        C  0.41874442  0.09256618  0.70152475     0.30600
C619        C  0.50104644  0.09577814  0.74324477     0.30600
C620        C  0.41975116  0.12163931  0.72307607    -0.05600
C621        C  0.41550146  0.06881720  0.72366746    -0.06400
C622        C  0.47885023  0.08859939  0.68945207    -0.06200
C623        C  0.46191300  0.12310684  0.74481639    -0.05600
C624        C  0.45776208  0.07095136  0.74563290    -0.06400
C625        C  0.51966314  0.09017156  0.71074603    -0.06300
C626        C  0.43640496  0.13492321  0.77129802    -0.31600
N627        N  0.38257375  0.14023394  0.76690714     0.14900
C628        C  0.37210585  0.13337282  0.73776754    -0.31600
H629        H  0.33032464  0.13016929  0.72935600     0.16800
C630        C  0.46435281  0.04316215  0.75431112    -0.30600
N631        N  0.43020394  0.52403469  0.73745687     0.13600
C632        C  0.40162907  0.03905951  0.71885689    -0.30600
C633        C  0.57011481  0.08779329  0.69633159    -0.30900
N634        N  0.56199412  0.08639790  0.66645024     0.14100
H635        H  0.60991626  0.08943221  0.70719945     0.16700
C636        C  0.50603993  0.08578875  0.66204972    -0.30900
H637        H  0.48643311  0.08642909  0.64074664     0.16700
H638        H  0.37962945  0.52862495  0.69942794     0.16700
H639        H  0.45249199  0.13284157  0.79327993     0.16800
H640        H  0.49632441  0.53513276  0.76784619     0.16700
C641        C  0.68102549  0.15456254  0.58570778    -0.01900
C642        C  0.23607974  0.14824365  0.87134439    -0.01900
C643        C  0.78466871  0.23692116  0.68227911     0.30600
C644        C  0.78453088  0.27636219  0.73367673     0.30600
C645        C  0.74727851  0.22847124  0.70881356    -0.05600
C646        C  0.84192710  0.24001869  0.69853180    -0.06400
C647        C  0.77315214  0.27027321  0.67864567    -0.06200
C648        C  0.74517751  0.24961715  0.73413901    -0.05600
C649        C  0.84029133  0.26021603  0.72546299    -0.06400
C650        C  0.77571210  0.28971543  0.70471022    -0.06300
C651        C  0.73863856  0.23359641  0.75837827    -0.31600
N652        N  0.73775442  0.20353588  0.75004604     0.14900
C653        C  0.74329242  0.20028965  0.71960699    -0.31600
H654        H  0.75012239  0.17918275  0.70589700     0.16800
C655        C  0.89241163  0.26264183  0.73639967    -0.30600
N656        N  0.92692949  0.24522609  0.71752947     0.13600
C657        C  0.89717433  0.23115967  0.69444807    -0.30600
C658        C  0.79880314  0.31611381  0.69737393    -0.30900
N659        N  0.80476261  0.31563019  0.66751607     0.14100
H660        H  0.81286967  0.33403046  0.71362742     0.16700
C661        C  0.79092304  0.28714020  0.65588316    -0.30900
H662        H  0.79536331  0.27826137  0.63263436     0.16700
H663        H  0.91514402  0.21702299  0.67568528     0.16700
H664        H  0.74364517  0.24372193  0.78104554     0.16800
H665        H  0.90454336  0.27706125  0.75610748     0.16700
C666        C  0.69648314  0.39626577  0.61611358    -0.01900
C667        C  0.68714714  0.11281742  0.83090326    -0.01900
C668        C  0.40320939  0.41309847  0.73078997     0.30600
C669        C  0.50311480  0.42098447  0.70118352     0.30600
C670        C  0.40364496  0.40425379  0.69693395    -0.05600
C671        C  0.42428785  0.44541231  0.73181553    -0.06400
C672        C  0.45288334  0.39670505  0.74157215    -0.06200
C673        C  0.45519218  0.40744531  0.68160476    -0.05600
C674        C  0.47572774  0.44961939  0.71705290    -0.06400
C675        C  0.50417600  0.40202216  0.72760313    -0.06300
C676        C  0.44175113  0.41593946  0.65402297    -0.31600
N677        N  0.38620354  0.41970206  0.65249380     0.14900
C678        C  0.36335266  0.41314805  0.67856923    -0.28000
H679        H  0.32086154  0.41825030  0.68572681     0.16800
C680        C  0.48617337  0.98066639  0.72030560    -0.30600
N681        N  0.43991842  0.99376500  0.73359066     0.13600
C682        C  0.40326229  0.97332268  0.74121241    -0.30600
C683        C  0.54277985  0.40341113  0.75010806    -0.30900
N684        N  0.51813660  0.39671223  0.77558843     0.14100
H685        H  0.58616280  0.40967979  0.74830801     0.16700
C686        C  0.46367276  0.39226871  0.77066168    -0.30900
H687        H  0.43350845  0.38751190  0.78766206     0.16700
H688        H  0.36151855  0.97820154  0.74984246     0.16700
H689        H  0.47124084  0.42221149  0.63747681     0.16800
H690        H  0.52022481  0.99250503  0.71088764     0.16700
C691        C  0.23638402  0.36776335  0.58546655    -0.01900
C692        C  0.68592037  0.34542707  0.84205332    -0.01900
C693        C  0.49344403  0.23076313  0.55529564     0.30600
C694        C  0.41419472  0.27493937  0.56301046     0.30600
C695        C  0.49904748  0.25342251  0.58363936    -0.05600
C696        C  0.49296740  0.25239289  0.53099220    -0.06400
C697        C  0.43219402  0.22043170  0.55547432    -0.06200
C698        C  0.45792848  0.27623040  0.58760973    -0.05600
C699        C  0.45258116  0.27551216  0.53567725    -0.06400
C700        C  0.39321073  0.24297258  0.55972605    -0.06300
C701        C  0.48565836  0.30244754  0.59743494    -0.31600
N702        N  0.54056269  0.29730742  0.59882067     0.14900
C703        C  0.54890546  0.26760882  0.59144139    -0.31600
H704        H  0.58942817  0.25804688  0.58543222     0.16800
C705        C  0.45262151  0.28357074  0.00776833    -0.30600
N706        N  0.48630310  0.26760154  0.98777071     0.13600
C707        C  0.51201762  0.24553724  0.00056105    -0.30600
C708        C  0.34161266  0.23029035  0.55922912    -0.30900
N709        N  0.34687742  0.19991445  0.55551741     0.14100
H710        H  0.30374446  0.24310817  0.56222979     0.16700
C711        C  0.40253186  0.19385192  0.55199355    -0.30900
H712        H  0.42081495  0.17167909  0.54898747     0.16700
H713        H  0.53464697  0.22698260  0.98839795     0.16700
H714        H  0.46798034  0.32464318  0.59772509     0.16800
H715        H  0.42247924  0.29979069  0.00216765     0.16700
C716        C  0.52096836  0.26068540  0.88053940     0.30600
C717        C  0.43020197  0.22559407  0.88946831     0.30600
C718        C  0.53362437  0.22740704  0.88302344    -0.05600
C719        C  0.48732344  0.26959520  0.90951683    -0.06400
C720        C  0.47627567  0.26016669  0.85659556    -0.06200
C721        C  0.48734845  0.20981504  0.88883016    -0.05600
C722        C  0.43940360  0.25176223  0.91381350    -0.06400
C723        C  0.43042339  0.24120085  0.86049287    -0.06300
C724        C  0.50744651  0.18884752  0.90624260    -0.31600
N725        N  0.56375857  0.18908816  0.90634350     0.14900
C726        C  0.57967427  0.21399239  0.89395496    -0.31600
H727        H  0.62210780  0.22185319  0.89266084     0.16800
C728        C  0.43403948  0.25044732  0.94395486    -0.30600
N729        N  0.47596762  0.26608089  0.95747642     0.13600
C730        C  0.50920227  0.27722560  0.93737482    -0.30600
C731        C  0.38552998  0.25423891  0.84815247    -0.30900
N732        N  0.40022466  0.28094528  0.83914053     0.14100
H733        H  0.34300957  0.24652142  0.84903528     0.16700
C734        C  0.45534926  0.28474365  0.84416059    -0.30900
H735        H  0.47785834  0.30535736  0.84215435     0.16700
H736        H  0.55000671  0.28653175  0.94237506     0.16700
H737        H  0.48297523  0.17413742  0.91870862     0.16800
H738        H  0.40672319  0.23565689  0.95485424     0.16700
O739        O  0.04543421  0.05512918  0.53688566    -0.74700
O740        O  0.12165520  0.02852049  0.01310703    -0.53600
C741        C  0.09702569  0.04778044  0.53494955     0.79000
O742        O  0.85949166  0.44832543  0.52675244    -0.59300
O743        O  0.79774691  0.47325875  0.00307981    -0.52300
C744        C  0.80910950  0.45612405  0.52210062     0.71100
O745        O  0.04354750  0.43724448  0.52005298    -0.73800
O746        O  0.11989366  0.45775247  0.99808317    -0.54400
C747        C  0.09628808  0.43964743  0.51496076     0.77100
O748        O  0.86843658  0.06524331  0.52113509    -0.59000
O749        O  0.80358999  0.04261204  0.99537642    -0.52100
C750        C  0.81742261  0.06207108  0.51359182     0.73600
Zr751      Zr  0.95894915  0.04290328  0.51229219     2.54700
O752        O  0.93938296  0.03986107  0.56514655    -0.79600
O753        O  0.96684740  0.09738506  0.51638228    -0.93000
Zr754      Zr  0.95623619  0.45787601  0.00973903     2.64700
O755        O  0.95856692  0.46511846  0.56232012    -0.97900
O756        O  0.94438753  0.40369432  0.00670691    -0.80000
O757        O  0.01184446  0.50006151  0.51217330    -0.83300
O758        O  0.90074412  0.00065615  0.50895737    -2.18100
O759        O  0.88532416  0.04981143  0.90176277    -0.66700
O760        O  0.81097208  0.02812016  0.92323802    -0.51300
C761        C  0.83276821  0.04431560  0.90356323     0.72000
O762        O  0.05947815  0.43587253  0.90278232    -0.59600
O763        O  0.12693866  0.46220520  0.92992421    -0.51600
C764        C  0.11070010  0.44276269  0.90809425     0.73800
O765        O  0.87483933  0.42981644  0.90822087    -0.71000
O766        O  0.80428160  0.45712918  0.93320436    -0.49700
C767        C  0.82307930  0.43505867  0.91454858     0.75200
O768        O  0.06822287  0.05707915  0.91684986    -0.66400
O769        O  0.13185784  0.03362052  0.94360569    -0.53600
C770        C  0.11814796  0.05300268  0.92569061     0.73600
Zr771      Zr  0.97323140  0.03895716  0.92467649     2.77500
O772        O  0.98893451  0.03366645  0.87071667    -0.97100
O773        O  0.96232602  0.09331989  0.93102390    -0.77900
Zr774      Zr  0.96620551  0.44956288  0.92224779     2.70100
O775        O  0.96265178  0.44942445  0.86824884    -0.79200
O776        O  0.96941512  0.39519849  0.92167636    -0.98300
Zr777      Zr  0.07656912  0.49574156  0.96974370     2.21500
Zr778      Zr  0.85111847  0.00041774  0.96391097     2.11100
O779        O  0.91462636  0.99588334  0.92150963    -2.47000
O780        O  0.02636266  0.99439103  0.92439070    -0.79000
O781        O  0.91148861  0.04342505  0.96666223    -0.71200
O782        O  0.01662031  0.45249015  0.96696205    -2.32100
O783        O  0.02412056  0.04173337  0.96968646    -2.28300
O784        O  0.90528105  0.45412797  0.96482597    -0.72900
H785        H  0.87597752  0.50436436  0.52614655     0.79100
H786        H  0.03814233  0.43422793  0.96598173     0.80100
H787        H  0.89442456  0.99383884  0.90306669     0.82400
H788        H  0.04730027  0.05942510  0.97215873     0.80000
H789        H  0.97336105  0.39538333  0.99212146     0.43000
H790        H  0.00547165  0.39100092  0.93062058     0.42000
H791        H  0.96484362  0.42793059  0.86023837     0.41700
H792        H  0.99028553  0.05454130  0.86557482     0.39600
H793        H  0.96520969  0.09910980  0.91048548     0.42700
H794        H  0.96711229  0.10821930  0.02908680     0.37500
H795        H  0.95321773  0.05905425  0.57549381     0.43600
H796        H  0.93022580  0.48071631  0.56859859     0.40000
H797        H  0.02765552  0.02625712  0.86758122     0.45000
H798        H  0.96663981  0.10391522  0.53816245     0.43700
H799        H  0.94305897  0.44652587  0.56910571     0.43800
H800        H  0.94110768  0.39076090  0.93684163     0.44200
C801        C  0.72282599  0.36869574  0.86166457    -0.04900
C802        C  0.73252974  0.36654759  0.89229441    -0.32300
C803        C  0.76159785  0.38903343  0.91031491     0.37000
C804        C  0.78380723  0.41395838  0.89790694    -0.05200
C805        C  0.77830126  0.41522499  0.86722235    -0.32200
C806        C  0.74894483  0.39309615  0.84917386     0.36900
H807        H  0.71802066  0.34736308  0.90270746     0.17200
O808        O  0.77089863  0.38556219  0.93967137    -0.59700
H809        H  0.79813549  0.43328430  0.85691043     0.17200
O810        O  0.74690098  0.39531355  0.81906018    -0.59800
H811        H  0.72668993  0.41421696  0.81701568     0.44200
H812        H  0.73360512  0.38683483  0.94957122     0.44200
C813        C  0.57162310  0.28078102  0.87518962    -0.04900
C814        C  0.57446693  0.31042475  0.88927539    -0.32300
C815        C  0.61659069  0.33026393  0.88221477     0.37000
C816        C  0.65823854  0.32110656  0.86006411    -0.05200
C817        C  0.65893097  0.29025108  0.84881110    -0.32200
C818        C  0.61449354  0.27107386  0.85456327     0.36900
H819        H  0.54128725  0.31952748  0.90417550     0.17200
O820        O  0.61288945  0.35970499  0.89462280    -0.59700
H821        H  0.68787379  0.28158552  0.83137052     0.17200
O822        O  0.61019215  0.24396588  0.83730124    -0.59800
H823        H  0.64384493  0.23278029  0.84165581     0.44200
H824        H  0.57821406  0.36773312  0.88692831     0.44200
C825        C  0.19537091  0.37867197  0.56236238    -0.04900
C826        C  0.21745367  0.39033217  0.53651998    -0.32300
C827        C  0.18705386  0.41034672  0.52085513     0.37000
C828        C  0.13208594  0.41848304  0.52988746    -0.05200
C829        C  0.10861599  0.40518187  0.55394418    -0.32200
C830        C  0.13884916  0.38620494  0.57018568     0.36900
H831        H  0.26034660  0.38578957  0.52972745     0.17200
O832        O  0.21175790  0.42181747  0.49691966    -0.59700
H833        H  0.06633983  0.41057708  0.56153284     0.17200
O834        O  0.11234749  0.37676650  0.59467954    -0.59800
H835        H  0.11171814  0.39439367  0.61019252     0.44200
H836        H  0.23524861  0.43865362  0.50574135     0.44200
C837        C  0.27908583  0.34176164  0.57604540    -0.04900
C838        C  0.31528145  0.33559964  0.59907891    -0.32300
C839        C  0.35420230  0.31293262  0.59589648     0.37000
C840        C  0.36614783  0.29781887  0.56746432    -0.05200
C841        C  0.32866951  0.30210143  0.54423414    -0.32200
C842        C  0.28481249  0.32348963  0.54846834     0.36900
H843        H  0.31289092  0.34844398  0.62077321     0.17200
O844        O  0.37577525  0.30378597  0.62144608    -0.59700
H845        H  0.33223194  0.28818384  0.52298884     0.17200
O846        O  0.24851399  0.32596352  0.52580895    -0.59800
H847        H  0.22250942  0.31210292  0.02828727     0.44200
H848        H  0.39235256  0.32181683  0.63284156     0.44200
C849        C  0.63328159  0.36024895  0.82980960    -0.04900
C850        C  0.62223677  0.39150460  0.83455459    -0.32300
C851        C  0.58204686  0.40427696  0.81776906     0.37000
C852        C  0.54780393  0.38563410  0.79889515    -0.05200
C853        C  0.55148745  0.35478565  0.79805075    -0.32200
C854        C  0.59473959  0.34194507  0.81185100     0.36900
H855        H  0.64603915  0.40652424  0.84986233     0.17200
O856        O  0.57734677  0.43489494  0.81933054    -0.59700
H857        H  0.52493913  0.34051522  0.78326347     0.17200
O858        O  0.60136100  0.31150499  0.80544213    -0.59800
H859        H  0.61303743  0.30786796  0.78406969     0.44200
H860        H  0.60102338  0.44068708  0.80263309     0.44200
C861        C  0.35506792  0.42597893  0.62692995    -0.04900
C862        C  0.29943212  0.43605952  0.63105256    -0.32300
C863        C  0.25771916  0.42149354  0.61326548     0.37000
C864        C  0.27361694  0.39601882  0.59365436    -0.05200
C865        C  0.32831336  0.39721325  0.58132796    -0.32200
C866        C  0.37009016  0.41120541  0.59871650     0.36900
H867        H  0.28724831  0.45069678  0.65094810     0.17200
O868        O  0.20282771  0.42754854  0.62027478    -0.59700
H869        H  0.34092037  0.38299389  0.56123477     0.17200
O870        O  0.42469866  0.40562187  0.59041611    -0.59800
H871        H  0.43172116  0.38449604  0.59387464     0.44200
H872        H  0.19109312  0.44134913  0.60589344     0.44200
C873        C  0.79695002  0.05808008  0.88083660    -0.04900
C874        C  0.74177520  0.04894004  0.87498567    -0.32300
C875        C  0.70767188  0.06326345  0.85525637     0.37000
C876        C  0.72761054  0.08806474  0.84071384    -0.05200
C877        C  0.78466372  0.09493324  0.84458071    -0.32200
C878        C  0.81858629  0.08048403  0.86380688     0.36900
H879        H  0.72423680  0.03091333  0.88624258     0.17200
O880        O  0.65406248  0.05332719  0.85111196    -0.59700
H881        H  0.80318875  0.11343680  0.83455227     0.17200
O882        O  0.87258177  0.09013896  0.86697463    -0.59800
H883        H  0.89355753  0.07886711  0.85008393     0.44200
H884        H  0.63643726  0.05445563  0.87133169     0.44200
C885        C  0.65673510  0.12427737  0.86117482    -0.04900
C886        C  0.68512043  0.14128216  0.88466810    -0.32300
C887        C  0.65454109  0.16189106  0.90484818     0.37000
C888        C  0.59595890  0.16166141  0.90381404    -0.05200
C889        C  0.57085360  0.13569792  0.88980833    -0.32200
C890        C  0.59991663  0.11760256  0.86759275     0.36900
H891        H  0.73004960  0.14324517  0.88363092     0.17200
O892        O  0.68150407  0.18362487  0.92321374    -0.59700
H893        H  0.52638777  0.13225436  0.89179113     0.17200
O894        O  0.57183093  0.09419920  0.85205218    -0.59800
H895        H  0.53937829  0.10310060  0.84297072     0.44200
H896        H  0.70253909  0.19586891  0.90983098     0.44200
C897        C  0.76628124  0.44509046  0.54325089    -0.04900
C898        C  0.76084133  0.45939455  0.57276785    -0.32300
C899        C  0.73444320  0.44521939  0.59594910     0.37000
C900        C  0.71096634  0.41607147  0.59018010    -0.05200
C901        C  0.71535015  0.40247858  0.56005053    -0.32200
C902        C  0.74237990  0.41644923  0.53717783     0.36900
H903        H  0.78076956  0.48094413  0.57845269     0.17200
O904        O  0.73479878  0.45946173  0.62458952    -0.59700
H905        H  0.70180309  0.37958706  0.55417724     0.17200
O906        O  0.75012263  0.40050523  0.50953002    -0.59800
H907        H  0.71237186  0.39798116  0.50107045     0.44200
H908        H  0.77405575  0.45880027  0.63089218     0.44200
C909        C  0.66186745  0.36778734  0.60445060    -0.04900
C910        C  0.67293023  0.33924810  0.61391276    -0.32300
C911        C  0.63456929  0.31592666  0.61131001     0.37000
C912        C  0.58283790  0.32009778  0.59886622    -0.05200
C913        C  0.57225756  0.34727415  0.58715803    -0.32200
C914        C  0.61050549  0.37096856  0.59018151     0.36900
H915        H  0.70808311  0.33522625  0.62710526     0.17200
O916        O  0.64574338  0.29035260  0.62420622    -0.59700
H917        H  0.53340572  0.35073967  0.57632077     0.17200
O918        O  0.59510001  0.39804769  0.58147134    -0.59800
H919        H  0.59619416  0.39512809  0.55929395     0.44200
H920        H  0.67453547  0.27944116  0.61108173     0.44200
C921        C  0.65660766  0.40992094  0.64293058    -0.04900
C922        C  0.61957886  0.43418690  0.64068731    -0.32300
C923        C  0.57257872  0.44018627  0.66055222     0.37000
C924        C  0.55998540  0.42142673  0.68324762    -0.05200
C925        C  0.59838783  0.39841996  0.68598713    -0.32200
C926        C  0.64517161  0.39284850  0.66732136     0.36900
H927        H  0.62442676  0.44744805  0.62221302     0.17200
O928        O  0.53708670  0.46305639  0.65595941    -0.59700
H929        H  0.59075114  0.38205720  0.70132161     0.17200
O930        O  0.67807183  0.36904359  0.67256322    -0.59800
H931        H  0.65342281  0.35128385  0.67295012     0.44200
H932        H  0.55925119  0.48175182  0.65969792     0.44200
C933        C  0.77319285  0.29999546  0.76133307    -0.04900
C934        C  0.79335056  0.29649223  0.79006790    -0.32300
C935        C  0.76926551  0.31245214  0.81637458     0.37000
C936        C  0.72320241  0.33191164  0.81448888    -0.05200
C937        C  0.71179238  0.33929310  0.78570681    -0.32200
C938        C  0.73176027  0.32252607  0.76000265     0.36900
H939        H  0.82479887  0.27971230  0.79238277     0.17200
O940        O  0.78797356  0.30695122  0.84376849    -0.59700
H941        H  0.68301932  0.35697294  0.78219045     0.17200
O942        O  0.70471657  0.32653918  0.73414255    -0.59800
H943        H  0.71396685  0.34721882  0.72981552     0.44200
H944        H  0.81765256  0.32202901  0.84861980     0.44200
C945        C  0.73637757  0.18094094  0.77135860    -0.04900
C946        C  0.72039423  0.18988789  0.80117031    -0.32300
C947        C  0.71207390  0.16978854  0.82234357     0.37000
C948        C  0.71907441  0.13812900  0.81474858    -0.05200
C949        C  0.74245309  0.12954917  0.78564986    -0.32200
C950        C  0.75016110  0.15018116  0.76414963     0.36900
H951        H  0.71033004  0.21297596  0.80844818     0.17200
O952        O  0.69246226  0.18234544  0.84949791    -0.59700
H953        H  0.74960102  0.10594877  0.77847250     0.17200
O954        O  0.76925844  0.13948237  0.73608713    -0.59800
H955        H  0.81040628  0.13948451  0.73747321     0.44200
H956        H  0.65164114  0.18396082  0.84742844     0.44200
C957        C  0.81175216  0.34258882  0.65251231    -0.04900
C958        C  0.80223657  0.37111792  0.66888649    -0.32300
C959        C  0.77459456  0.39360113  0.65569572     0.37000
C960        C  0.75488779  0.38657482  0.62642850    -0.05200
C961        C  0.78600962  0.36460798  0.60791858    -0.32200
C962        C  0.81281896  0.34155923  0.62105596     0.36900
H963        H  0.80807203  0.37492284  0.69273476     0.17200
O964        O  0.75808184  0.41925671  0.67321119    -0.59700
H965        H  0.77915388  0.36112835  0.58410272     0.17200
O966        O  0.83351683  0.31696888  0.60331203    -0.59800
H967        H  0.80147347  0.30794701  0.59192975     0.44200
H968        H  0.79210611  0.43175332  0.67583262     0.44200
C969        C  0.16141753  0.07293140  0.91413235    -0.04900
C970        C  0.17795949  0.09939410  0.93146647    -0.32300
C971        C  0.20593076  0.12263613  0.91845264     0.37000
C972        C  0.21990421  0.11974326  0.88729413    -0.05200
C973        C  0.20532805  0.09195210  0.87076060    -0.32200
C974        C  0.17661369  0.06920458  0.88371149     0.36900
H975        H  0.16553073  0.10308619  0.95487405     0.17200
O976        O  0.21684426  0.14873771  0.93641454    -0.59700
H977        H  0.21260652  0.08777968  0.84699010     0.17200
O978        O  0.15967481  0.04417352  0.86571660    -0.59800
H979        H  0.19017025  0.02938444  0.86628456     0.44200
H980        H  0.18139813  0.16015145  0.93788522     0.44200
C981        C  0.27878020  0.16905114  0.89056030    -0.04900
C982        C  0.27571289  0.20081625  0.89612872    -0.32300
C983        C  0.32399696  0.21902495  0.89884091     0.37000
C984        C  0.37749609  0.20604638  0.89389249    -0.05200
C985        C  0.38021375  0.17451482  0.89240059    -0.32200
C986        C  0.33228049  0.15668215  0.89428533     0.36900
H987        H  0.23757894  0.21275434  0.89585082     0.17200
O988        O  0.31855467  0.24965698  0.90545311    -0.59700
H989        H  0.41876304  0.16267551  0.88769892     0.17200
O990        O  0.33809412  0.12632538  0.89567767    -0.59800
H991        H  0.36695979  0.11881244  0.88059461     0.44200
H992        H  0.28996435  0.25630074  0.89203553     0.44200
C993        C  0.77938767  0.08468354  0.53047676    -0.04900
C994        C  0.73587433  0.09879295  0.51709719    -0.32300
C995        C  0.70532645  0.12279560  0.53310611     0.37000
C996        C  0.71897695  0.13380809  0.56323695    -0.05200
C997        C  0.76259941  0.11876626  0.57592349    -0.32200
C998        C  0.79155782  0.09480648  0.56043537     0.36900
H999        H  0.72542288  0.09126254  0.49414954     0.17200
O1000       O  0.65992447  0.13331631  0.51960250    -0.59700
H1001       H  0.77241173  0.12430096  0.59922370     0.17200
O1002       O  0.83021554  0.08020878  0.57559429    -0.59800
H1003       H  0.86201472  0.09430319  0.57873173     0.44200
H1004       H  0.67524571  0.14473942  0.50370696     0.44200
C1005       C  0.53814626  0.20597330  0.55538406    -0.04900
C1006       C  0.59211742  0.20887189  0.54285226    -0.32300
C1007       C  0.63782833  0.19173453  0.55120025     0.37000
C1008       C  0.63023420  0.16940886  0.57092515    -0.05200
C1009       C  0.57490056  0.16559052  0.58140847    -0.32200
C1010       C  0.53137364  0.18436804  0.57559722     0.36900
H1011       H  0.60033073  0.22650470  0.52886438     0.17200
O1012       O  0.69034611  0.19807238  0.54117262    -0.59700
H1013       H  0.56510579  0.15155648  0.59860305     0.17200
O1014       O  0.48400009  0.18352690  0.59302402    -0.59800
H1015       H  0.49126649  0.19718140  0.61149796     0.44200
H1016       H  0.70118331  0.21703641  0.55325551     0.44200
C1017       C  0.71228228  0.18124589  0.60473406    -0.04900
C1018       C  0.77137850  0.18439432  0.60595853    -0.32300
C1019       C  0.79767599  0.20121394  0.63070311     0.37000
C1020       C  0.76532776  0.21808228  0.65318959    -0.05200
C1021       C  0.70767156  0.21927585  0.64844254    -0.32200
C1022       C  0.68129323  0.20092178  0.62598549     0.36900
H1023       H  0.79794762  0.17244151  0.58900195     0.17200
O1024       O  0.85444549  0.20095438  0.63227507    -0.59700
H1025       H  0.68119871  0.23331152  0.66407064     0.17200
O1026       O  0.62436155  0.20003146  0.62772209    -0.59800
H1027       H  0.61160836  0.21892339  0.62055041     0.44200
H1028       H  0.86350503  0.18170468  0.63993301     0.44200
C1029       C  0.64056074  0.10451108  0.80722796    -0.04900
C1030       C  0.60597546  0.12875807  0.80179788    -0.32300
C1031       C  0.56595477  0.12683230  0.77997005     0.37000
C1032       C  0.55070210  0.09866481  0.76515898    -0.05200
C1033       C  0.58642938  0.07412974  0.76893251    -0.32200
C1034       C  0.63172861  0.07703500  0.78907160     0.36900
H1035       H  0.61140764  0.15059042  0.81406379     0.17200
O1036       O  0.54731167  0.15328215  0.77095385    -0.59700
H1037       H  0.58096684  0.05292192  0.75522533     0.17200
O1038       O  0.66717062  0.05328989  0.78996008    -0.59800
H1039       H  0.69585808  0.05549559  0.77422418     0.44200
H1040       H  0.53241369  0.16561728  0.78910917     0.44200
C1041       C  0.34167417  0.14018000  0.79011573    -0.04900
C1042       C  0.31410356  0.16659313  0.79948861    -0.32300
C1043       C  0.27973926  0.16890761  0.82483855     0.37000
C1044       C  0.27114082  0.14366402  0.84141620    -0.05200
C1045       C  0.30014342  0.11695960  0.83135505    -0.32200
C1046       C  0.33456090  0.11507135  0.80580835     0.36900
H1047       H  0.32172747  0.18612053  0.78787479     0.17200
O1048       O  0.25879955  0.19682794  0.83500716    -0.59700
H1049       H  0.30016518  0.09805850  0.84411234     0.17200
O1050       O  0.36237845  0.08881172  0.79664778    -0.59800
H1051       H  0.39395448  0.08834568  0.81045387     0.44200
H1052       H  0.24548213  0.20599263  0.81742316     0.44200
C1053       C  0.65967346  0.13175805  0.60720262    -0.04900
C1054       C  0.62538885  0.10756190  0.59552574    -0.32300
C1055       C  0.59599879  0.09027849  0.61449446     0.37000
C1056       C  0.60262452  0.09596201  0.64561048    -0.05200
C1057       C  0.64561850  0.11515354  0.65637445    -0.32200
C1058       C  0.67516388  0.13214036  0.63761793     0.36900
H1059       H  0.61690861  0.10415044  0.57183748     0.17200
O1060       O  0.55861507  0.06932666  0.60248703    -0.59700
H1061       H  0.65501216  0.11874148  0.67987780     0.17200
O1062       O  0.71885849  0.14868216  0.64978113    -0.59800
H1063       H  0.74923182  0.13407274  0.65154586     0.44200
H1064       H  0.57642481  0.04961046  0.60385264     0.44200
C1065       C  0.20872280  0.39019012  0.83790753    -0.04900
C1066       C  0.20812834  0.38294761  0.86782386    -0.32300
C1067       C  0.18037440  0.40110482  0.89145270     0.37000
C1068       C  0.15207230  0.42737808  0.88603668    -0.05200
C1069       C  0.15322721  0.43510489  0.85673694    -0.32200
C1070       C  0.18041149  0.41706607  0.83305473     0.36900
H1071       H  0.22615684  0.36208218  0.87286518     0.17200
O1072       O  0.17709373  0.39148316  0.91924846    -0.59700
H1073       H  0.13013784  0.45461237  0.85175161     0.17200
O1074       O  0.17597034  0.42512440  0.80473680    -0.59800
H1075       H  0.19774872  0.44393142  0.80460550     0.44200
H1076       H  0.20801899  0.40178938  0.93053994     0.44200
C1077       C  0.27256059  0.34317473  0.81932398    -0.04900
C1078       C  0.31843450  0.35291219  0.83727355    -0.32300
C1079       C  0.36158582  0.33328571  0.84325629     0.37000
C1080       C  0.36038853  0.30282056  0.83126562    -0.05200
C1081       C  0.31633963  0.29298190  0.81295926    -0.32200
C1082       C  0.27413386  0.31246520  0.80602181     0.36900
H1083       H  0.32107181  0.37615515  0.84680248     0.17200
O1084       O  0.40320703  0.34391132  0.86201545    -0.59700
H1085       H  0.31514424  0.26969047  0.80331815     0.17200
O1086       O  0.23495262  0.30078327  0.78612203    -0.59800
H1087       H  0.25498799  0.28950868  0.76887558     0.44200
H1088       H  0.42846108  0.35520876  0.84967068     0.44200
C1089       C  0.26485786  0.38310997  0.78681581    -0.04900
C1090       C  0.29712037  0.40875544  0.79638364    -0.32300
C1091       C  0.33871873  0.42005568  0.77815983     0.37000
C1092       C  0.34924797  0.40654843  0.74853741    -0.05200
C1093       C  0.31735362  0.38110786  0.73873983    -0.32200
C1094       C  0.27794586  0.36879030  0.75754127     0.36900
H1095       H  0.29350450  0.41912030  0.81925555     0.17200
O1096       O  0.37341440  0.44201685  0.79100754    -0.59700
H1097       H  0.32624392  0.36881281  0.71702204     0.17200
O1098       O  0.25422385  0.34187127  0.74721029    -0.59800
H1099       H  0.28548963  0.32775561  0.74163569     0.44200
H1100       H  0.34923220  0.45955875  0.79758026     0.44200
C1101       C  0.17902423  0.15968417  0.86059759    -0.04900
C1102       C  0.15650878  0.14371675  0.83452113    -0.32300
C1103       C  0.13615869  0.15904018  0.81182912     0.37000
C1104       C  0.13551158  0.19067066  0.81578848    -0.05200
C1105       C  0.13649926  0.20449837  0.84579479    -0.32200
C1106       C  0.15555867  0.18826488  0.86864045     0.36900
H1107       H  0.16464219  0.12026213  0.82839550     0.17200
O1108       O  0.12234357  0.14280841  0.78533998    -0.59700
H1109       H  0.12530527  0.22780330  0.85152967     0.17200
O1110       O  0.14751095  0.19941770  0.89806917    -0.59800
H1111       H  0.11557479  0.18796512  0.90523374     0.44200
H1112       H  0.08549215  0.13383520  0.78913542     0.44200
C1113       C  0.18537836  0.31093690  0.65414959    -0.04900
C1114       C  0.20757884  0.33941316  0.66271751    -0.32300
C1115       C  0.21606199  0.36053000  0.64277390     0.37000
C1116       C  0.20532775  0.35341083  0.61176252    -0.05200
C1117       C  0.17746305  0.32561397  0.60379075    -0.32200
C1118       C  0.16839913  0.30446777  0.62432815     0.36900
H1119       H  0.22224073  0.34537979  0.68516562     0.17200
O1120       O  0.24071476  0.38647987  0.65432486    -0.59700
H1121       H  0.16742385  0.31906922  0.58059097     0.17200
O1122       O  0.14344797  0.27766769  0.61477410    -0.59800
H1123       H  0.17283636  0.26551910  0.60329416     0.44200
H1124       H  0.27903474  0.38057217  0.65873558     0.44200
C1125       C  0.17488796  0.35149011  0.79914926    -0.04900
C1126       C  0.14846306  0.33084594  0.81646775    -0.32300
C1127       C  0.11482169  0.30782789  0.80242343     0.37000
C1128       C  0.11013308  0.30483060  0.77108622    -0.05200
C1129       C  0.11251713  0.33242725  0.75916953    -0.32200
C1130       C  0.14802118  0.35534974  0.77207185     0.36900
H1131       H  0.15808048  0.33059012  0.83980669     0.17200
O1132       O  0.08128809  0.29152476  0.81949466    -0.59700
H1133       H  0.09327473  0.33464470  0.73800408     0.17200
O1134       O  0.15840100  0.37984545  0.75722264    -0.59800
H1135       H  0.12349604  0.39174605  0.75922062     0.44200
H1136       H  0.04384748  0.30077282  0.81926500     0.44200
C1137       C  0.19061914  0.09846900  0.60753059    -0.04900
C1138       C  0.14532743  0.11064068  0.59339984    -0.32300
C1139       C  0.11777521  0.09490920  0.56935913     0.37000
C1140       C  0.13217827  0.06494352  0.55867085    -0.05200
C1141       C  0.17551394  0.05171807  0.57312943    -0.32200
C1142       C  0.20477647  0.06798776  0.59705850     0.36900
H1143       H  0.13373273  0.13389797  0.59946897     0.17200
O1144       O  0.07771298  0.10986056  0.55560405    -0.59700
H1145       H  0.18718844  0.02868276  0.56576196     0.17200
O1146       O  0.25000409  0.05449515  0.60793183    -0.59800
H1147       H  0.23519303  0.03681580  0.61686045     0.44200
H1148       H  0.09797809  0.11964289  0.53993867     0.44200
C1149       C  0.25126075  0.14041929  0.60045221    -0.04900
C1150       C  0.23041492  0.16943189  0.59812123    -0.32300
C1151       C  0.25565181  0.18807099  0.57924435     0.37000
C1152       C  0.30490791  0.17861259  0.56314964    -0.05200
C1153       C  0.31699398  0.14772875  0.55984039    -0.32200
C1154       C  0.28923478  0.12840519  0.57754272     0.36900
H1155       H  0.19476898  0.17829494  0.61131784     0.17200
O1156       O  0.23213364  0.21561057  0.57777664    -0.59700
H1157       H  0.35029523  0.13870725  0.54495249     0.17200
O1158       O  0.30281717  0.09844739  0.57408376    -0.59800
H1159       H  0.34295376  0.09728810  0.57859986     0.44200
H1160       H  0.21296384  0.21380602  0.55833740     0.44200
C1161       C  0.28096659  0.10833301  0.64140821    -0.04900
C1162       C  0.33511152  0.12053714  0.63855093    -0.32300
C1163       C  0.37881759  0.11472157  0.65692162     0.37000
C1164       C  0.37260871  0.09428766  0.67826497    -0.05200
C1165       C  0.31892910  0.08189530  0.68175393    -0.32200
C1166       C  0.27342931  0.08944954  0.66437483     0.36900
H1167       H  0.34350988  0.13799828  0.62452827     0.17200
O1168       O  0.42617605  0.13173124  0.65560196    -0.59700
H1169       H  0.31053347  0.06851803  0.69982238     0.17200
O1170       O  0.22067033  0.08091617  0.67208722    -0.59800
H1171       H  0.21989816  0.05873405  0.66786781     0.44200
H1172       H  0.41795523  0.15088019  0.66827547     0.44200
C1173       C  0.20166650  0.14400378  0.65151527    -0.04900
C1174       C  0.23558002  0.16718793  0.66535470    -0.32300
C1175       C  0.21469045  0.19070277  0.68547100     0.37000
C1176       C  0.15686958  0.19375927  0.69159328    -0.05200
C1177       C  0.12300514  0.16917028  0.68085957    -0.32200
C1178       C  0.14525450  0.14396905  0.66193678     0.36900
H1179       H  0.27942269  0.16798856  0.65975497     0.17200
O1180       O  0.25193126  0.21078555  0.69934297    -0.59700
H1181       H  0.07984690  0.16875362  0.68799341     0.17200
O1182       O  0.11287548  0.11884921  0.65577078    -0.59800
H1183       H  0.07864052  0.12559996  0.64655440     0.44200
H1184       H  0.26769576  0.22202163  0.68340495     0.44200
C1185       C  0.23086715  0.62190132  0.12405642    -0.01900
C1186       C  0.13489589  0.72220793  0.20977846     0.30600
C1187       C  0.11914109  0.77485409  0.24793569     0.30600
C1188       C  0.16238851  0.75066042  0.19993529    -0.05600
C1189       C  0.07360384  0.73293111  0.21477624    -0.06400
C1190       C  0.15306176  0.72182794  0.24244306    -0.06200
C1191       C  0.15668315  0.77672429  0.21977547    -0.05600
C1192       C  0.06707255  0.75982284  0.23414748    -0.06400
C1193       C  0.14618285  0.74851547  0.26200532    -0.06300
C1194       C  0.17262246  0.79989755  0.20400384    -0.31600
N1195       N  0.18290389  0.78989997  0.17494648     0.14900
C1196       C  0.17615264  0.75956182  0.17201693    -0.31600
H1197       H  0.17861044  0.74494618  0.15117190     0.16800
C1198       C  0.01205283  0.76649180  0.23693126    -0.30600
N1199       N  0.98363316  0.74482289  0.22014606     0.13600
C1200       C  0.02021664  0.72426274  0.20622309    -0.30600
C1201       C  0.13965787  0.73938414  0.29031560    -0.30900
N1202       N  0.13854852  0.70907110  0.28886221     0.14100
H1203       H  0.13700474  0.75380631  0.31091398     0.16700
C1204       C  0.14729410  0.69842708  0.25964926    -0.30900
H1205       H  0.14673791  0.67520728  0.25030590     0.16700
H1206       H  0.00846594  0.70464073  0.19147223     0.16700
H1207       H  0.17357436  0.82319217  0.21230056     0.16800
H1208       H  0.99424333  0.78588761  0.25023453     0.16700
C1209       C  0.22647873  0.86787585  0.30893234    -0.01900
C1210       C  0.42008148  0.59235222  0.19913687     0.30600
C1211       C  0.50118362  0.59574464  0.24161294     0.30600
C1212       C  0.41937729  0.62110583  0.22120559    -0.05600
C1213       C  0.41739248  0.56814002  0.22085863    -0.06400
C1214       C  0.48056383  0.58936893  0.18756655    -0.06200
C1215       C  0.46055116  0.62253274  0.24353865    -0.05600
C1216       C  0.45907761  0.57035637  0.24302667    -0.06400
C1217       C  0.52070603  0.59099234  0.20924868    -0.06300
C1218       C  0.43309827  0.63314117  0.26993678    -0.31600
N1219       N  0.37933444  0.63815470  0.26478043     0.14900
C1220       C  0.37071875  0.63207347  0.23538101    -0.31600
H1221       H  0.32952485  0.62899211  0.22616322     0.16800
C1222       C  0.46490428  0.54288567  0.25240645    -0.30600
N1223       N  0.43201733  0.02395387  0.24018179     0.13600
C1224       C  0.40271376  0.53848896  0.21658743    -0.30600
C1225       C  0.57152017  0.58838216  0.19532643    -0.30900
N1226       N  0.56431729  0.58701565  0.16541329     0.14100
H1227       H  0.61108789  0.58981858  0.20646248     0.16700
C1228       C  0.50860525  0.58655459  0.16039787    -0.30900
H1229       H  0.48993759  0.58709681  0.13881479     0.16700
H1230       H  0.38317846  0.02645784  0.20102745     0.16700
H1231       H  0.44823356  0.63072214  0.29204484     0.16800
H1232       H  0.49686044  0.03668689  0.27095220     0.16700
C1233       C  0.68399779  0.65513169  0.08537716    -0.01900
C1234       C  0.23063595  0.64725176  0.36840819    -0.01900
C1235       C  0.78371734  0.73641612  0.18318541     0.30600
C1236       C  0.78247065  0.77526027  0.23487081     0.30600
C1237       C  0.74483209  0.72787531  0.20915310    -0.05600
C1238       C  0.84008259  0.73889218  0.19998895    -0.06400
C1239       C  0.77329452  0.76996682  0.17982986    -0.06200
C1240       C  0.74232378  0.74890178  0.23457757    -0.05600
C1241       C  0.83825784  0.75881567  0.22706832    -0.06400
C1242       C  0.77451960  0.78907655  0.20608534    -0.06300
C1243       C  0.73441582  0.73305592  0.25874356    -0.31600
N1244       N  0.73350036  0.70308088  0.25041510     0.14900
C1245       C  0.74003771  0.69970869  0.22000579    -0.31600
H1246       H  0.74713519  0.67850331  0.20650761     0.16800
C1247       C  0.89081313  0.76148126  0.23764278    -0.30600
N1248       N  0.92515791  0.74425984  0.21842505     0.13600
C1249       C  0.89519819  0.73029584  0.19551240    -0.30600
C1250       C  0.79560344  0.81610330  0.19940768    -0.30900
N1251       N  0.80327070  0.81593128  0.16960896     0.14100
H1252       H  0.80714813  0.83420223  0.21610207     0.16700
C1253       C  0.79146080  0.78728260  0.15751325    -0.30900
H1254       H  0.79756868  0.77863099  0.13430196     0.16700
H1255       H  0.91332870  0.71679949  0.17641772     0.16700
H1256       H  0.73926722  0.74312704  0.28147539     0.16800
H1257       H  0.90346496  0.77620324  0.25704352     0.16700
C1258       C  0.69886022  0.89794591  0.11775353    -0.01900
C1259       C  0.68390252  0.61303235  0.33128205    -0.01900
C1260       C  0.40478847  0.91369376  0.23252701     0.30600
C1261       C  0.50532485  0.92148457  0.20353761     0.30600
C1262       C  0.40517881  0.90641808  0.19849232    -0.05600
C1263       C  0.42749355  0.94562763  0.23522441    -0.06400
C1264       C  0.45339238  0.89607061  0.24271542    -0.06200
C1265       C  0.45682880  0.90968294  0.18344914    -0.05600
C1266       C  0.47930919  0.94987782  0.22081689    -0.06400
C1267       C  0.50521397  0.90112214  0.22893168    -0.06300
C1268       C  0.44383481  0.91937202  0.15626328    -0.31600
N1269       N  0.38822458  0.92324477  0.15458581     0.14900
C1270       C  0.36516664  0.91613215  0.18042608    -0.28000
H1271       H  0.32236285  0.92062757  0.18739475     0.16800
C1272       C  0.48493254  0.47981118  0.21937118    -0.30600
N1273       N  0.43929359  0.49341762  0.23273111     0.13600
C1274       C  0.40204814  0.47342244  0.24069342    -0.30600
C1275       C  0.54355241  0.90182615  0.25154732    -0.30900
N1276       N  0.51807179  0.89580257  0.27704565     0.14100
H1277       H  0.58716598  0.90768182  0.24988888     0.16700
C1278       C  0.46363788  0.89171958  0.27189080    -0.30900
H1279       H  0.43295465  0.88777449  0.28893557     0.16700
H1280       H  0.36036230  0.47874662  0.24917897     0.16700
H1281       H  0.47371966  0.92610875  0.14012741     0.16800
H1282       H  0.51897542  0.49125915  0.20950509     0.16700
C1283       C  0.24224957  0.86953887  0.08529232    -0.01900
C1284       C  0.68423533  0.84469923  0.34364396    -0.01900
C1285       C  0.49507469  0.73067528  0.05617849     0.30600
C1286       C  0.41658299  0.77532042  0.06229788     0.30600
C1287       C  0.50208173  0.75470449  0.08327687    -0.05600
C1288       C  0.49352116  0.75071786  0.03062805    -0.06400
C1289       C  0.43362806  0.72080890  0.05780726    -0.06200
C1290       C  0.46110771  0.77760209  0.08650394    -0.05600
C1291       C  0.45383612  0.77404908  0.03446542    -0.06400
C1292       C  0.39496052  0.74365965  0.06088559    -0.06300
C1293       C  0.48865543  0.80409710  0.09521885    -0.31600
N1294       N  0.54356138  0.79911571  0.09648444     0.14900
C1295       C  0.55202823  0.76929676  0.08986971    -0.31600
H1296       H  0.59241740  0.75964375  0.08378444     0.16800
C1297       C  0.44962321  0.78507326  0.50650946    -0.30600
N1298       N  0.48072707  0.76809533  0.48616282     0.13600
C1299       C  0.50737780  0.74634104  0.49884597    -0.30600
C1300       C  0.34314116  0.73140750  0.05876834    -0.30900
N1301       N  0.34787192  0.70110141  0.05605362     0.14100
H1302       H  0.30524464  0.74422684  0.05892232     0.16700
C1303       C  0.40338925  0.69447312  0.05423003    -0.30900
H1304       H  0.42078840  0.67208206  0.05177324     0.16700
H1305       H  0.52777024  0.72706408  0.48658285     0.16700
H1306       H  0.47056593  0.82615225  0.09519819     0.16800
H1307       H  0.41928945  0.80124656  0.50108007     0.16700
C1308       C  0.51547186  0.76133456  0.37982926     0.30600
C1309       C  0.42473484  0.72583562  0.38790213     0.30600
C1310       C  0.52810916  0.72810327  0.38274872    -0.05600
C1311       C  0.48053327  0.77031174  0.40827285    -0.06400
C1312       C  0.47165052  0.76050517  0.35535545    -0.06200
C1313       C  0.48180194  0.71035772  0.38779002    -0.05600
C1314       C  0.43293358  0.75207488  0.41238925    -0.06400
C1315       C  0.42565179  0.74147255  0.35901465    -0.06300
C1316       C  0.50091087  0.68891879  0.40483152    -0.31600
N1317       N  0.55713259  0.68919737  0.40560128     0.14900
C1318       C  0.57360783  0.71449898  0.39405048    -0.31600
H1319       H  0.61604961  0.72246034  0.39358403     0.16800
C1320       C  0.42782112  0.75057807  0.44255646    -0.30600
N1321       N  0.46928197  0.76664177  0.45605718     0.13600
C1322       C  0.50181209  0.77830301  0.43610006    -0.30600
C1323       C  0.38081206  0.75459626  0.34680474    -0.30900
N1324       N  0.39569832  0.78122696  0.33772407     0.14100
H1325       H  0.33816857  0.74712392  0.34811004     0.16700
C1326       C  0.45083296  0.78500115  0.34277670    -0.30900
H1327       H  0.47343175  0.80557933  0.34076486     0.16700
H1328       H  0.54236059  0.78787772  0.44122821     0.16700
H1329       H  0.47571811  0.67365786  0.41627673     0.16800
H1330       H  0.40130621  0.73538020  0.45341002     0.16700
O1331       O  0.04870860  0.55661200  0.03406534    -0.74700
O1332       O  0.11703060  0.52888911  0.51400113    -0.53600
C1333       C  0.10006638  0.54878470  0.03216072     0.79000
O1334       O  0.86228962  0.95194713  0.02939745    -0.59300
O1335       O  0.79507590  0.97310185  0.50202676    -0.52300
C1336       C  0.81190377  0.95978683  0.02475399     0.71100
O1337       O  0.04540407  0.93699202  0.02014499    -0.73800
O1338       O  0.11748243  0.95756150  0.49962161    -0.54400
C1339       C  0.09807738  0.93918047  0.01465128     0.77100
O1340       O  0.87034206  0.56630191  0.02063967    -0.59000
O1341       O  0.79897538  0.54098682  0.49499331    -0.52100
C1342       C  0.81917548  0.56234973  0.01375980     0.73600
Zr1343     Zr  0.96106954  0.54483024  0.01056822     2.54700
O1344       O  0.94413276  0.54909427  0.06436904    -0.79600
O1345       O  0.97112682  0.59879647  0.00931101    -0.93000
Zr1346     Zr  0.95367294  0.95576264  0.50822068     2.64700
O1347       O  0.96184458  0.96529140  0.06301150    -0.97900
O1348       O  0.94398026  0.90145623  0.49806149    -0.80000
O1349       O  0.01534711  0.00067322  0.01214053    -0.83300
O1350       O  0.90303238  0.50245589  0.00933589    -2.18100
O1351       O  0.88142493  0.55013151  0.40291399    -0.66700
O1352       O  0.80733544  0.52766370  0.42370333    -0.51300
C1353       C  0.82893355  0.54440492  0.40450045     0.72000
O1354       O  0.05930180  0.93808921  0.40139144    -0.59600
O1355       O  0.12684982  0.96174050  0.43064433    -0.51600
C1356       C  0.11054807  0.94372178  0.40762860     0.73800
O1357       O  0.87555564  0.93054845  0.40660334    -0.71000
O1358       O  0.80440431  0.95738710  0.43161976    -0.49700
C1359       C  0.82368779  0.93556744  0.41281483     0.75200
O1360       O  0.06464274  0.55623373  0.41611157    -0.66400
O1361       O  0.12849035  0.53375577  0.44356228    -0.53600
C1362       C  0.11457935  0.55254971  0.42505891     0.73600
Zr1363     Zr  0.96983460  0.53908371  0.42537303     2.77500
O1364       O  0.98527573  0.53650887  0.37152443    -0.97100
O1365       O  0.96171795  0.59352254  0.43481453    -0.77900
Zr1366     Zr  0.96639199  0.95014582  0.42166310     2.70100
O1367       O  0.96362549  0.94464493  0.36728391    -0.79200
O1368       O  0.97502092  0.89645395  0.42504501    -0.98300
Zr1369     Zr  0.07608546  0.99555565  0.47060366     2.21500
Zr1370     Zr  0.84846350  0.49944928  0.46356097     2.11100
O1371       O  0.91226038  0.49566716  0.42130814    -2.47000
O1372       O  0.02392463  0.49475426  0.42463420    -0.79000
O1373       O  0.90768843  0.54278133  0.46709739    -0.71200
O1374       O  0.01630583  0.95216077  0.46645267    -2.32100
O1375       O  0.02049968  0.54150158  0.47040876    -2.28300
O1376       O  0.90337719  0.95366940  0.46325015    -0.72900
H1377       H  0.88003111  0.00632551  0.02637878     0.79100
H1378       H  0.03816795  0.93402978  0.46548133     0.80100
H1379       H  0.89220148  0.49387193  0.40281418     0.82400
H1380       H  0.04382621  0.55912637  0.47275343     0.80000
H1381       H  0.90386027  0.89743435  0.50110560     0.43000
H1382       H  0.96870425  0.88688622  0.40444358     0.42000
H1383       H  0.95832312  0.96530958  0.36213428     0.41700
H1384       H  0.95532074  0.52331609  0.36270542     0.39600
H1385       H  0.92181823  0.59734681  0.43975916     0.42700
H1386       H  0.00957254  0.60121487  0.50548360     0.37500
H1387       H  0.95596196  0.52951442  0.07024588     0.43600
H1388       H  0.99936546  0.97381398  0.06704346     0.40000
H1389       H  0.97557195  0.55678734  0.36659093     0.45000
H1390       H  0.96987125  0.60738371  0.03059472     0.43700
H1391       H  0.93608320  0.98212190  0.06948114     0.43800
H1392       H  0.01500455  0.89297204  0.42832872     0.44200
C1393       C  0.72280886  0.86788751  0.36220555    -0.04900
C1394       C  0.73012038  0.86784702  0.39333386    -0.32300
C1395       C  0.75903560  0.89104521  0.41038328     0.37000
C1396       C  0.78484797  0.91404791  0.39646999    -0.05200
C1397       C  0.78226743  0.91296423  0.36536906    -0.32200
C1398       C  0.75174496  0.89059472  0.34832756     0.36900
H1399       H  0.71318951  0.85004388  0.40499821     0.17200
O1400       O  0.76393621  0.89028663  0.44055210    -0.59700
H1401       H  0.80448259  0.92958720  0.35406238     0.17200
O1402       O  0.75094945  0.89105087  0.31790435    -0.59800
H1403       H  0.73076131  0.90961268  0.31456994     0.44200
H1404       H  0.72676678  0.89629221  0.44915041     0.44200
C1405       C  0.56670537  0.78145643  0.37530524    -0.04900
C1406       C  0.56957558  0.81112025  0.38946883    -0.32300
C1407       C  0.61368332  0.83043143  0.38382572     0.37000
C1408       C  0.65645812  0.82092067  0.36238786    -0.05200
C1409       C  0.65720657  0.78997176  0.35159699    -0.32200
C1410       C  0.61145801  0.77124670  0.35617364     0.36900
H1411       H  0.53538649  0.82057740  0.40343710     0.17200
O1412       O  0.61071241  0.85982789  0.39647943    -0.59700
H1413       H  0.68757941  0.78084392  0.33513772     0.17200
O1414       O  0.60806230  0.74406291  0.33901831    -0.59800
H1415       H  0.64132639  0.73298914  0.34413066     0.44200
H1416       H  0.57702567  0.86845103  0.38833253     0.44200
C1417       C  0.20050324  0.88004667  0.06233820    -0.04900
C1418       C  0.22174178  0.89189735  0.03645444    -0.32300
C1419       C  0.18956307  0.91055059  0.02016904     0.37000
C1420       C  0.13434895  0.91800382  0.02929618    -0.05200
C1421       C  0.11176116  0.90444785  0.05342374    -0.32200
C1422       C  0.14334194  0.88617561  0.06984107     0.36900
H1423       H  0.26495978  0.88822328  0.02981419     0.17200
O1424       O  0.21260913  0.92115686  0.99534381    -0.59700
H1425       H  0.06914603  0.90906481  0.06087368     0.17200
O1426       O  0.11740764  0.87598448  0.09412004    -0.59800
H1427       H  0.11560891  0.89344328  0.10980102     0.44200
H1428       H  0.23358124  0.93940174  0.00306160     0.44200
C1429       C  0.28576479  0.84425186  0.07507620    -0.04900
C1430       C  0.32245352  0.83796570  0.09778862    -0.32300
C1431       C  0.35867159  0.81412793  0.09477385     0.37000
C1432       C  0.36967810  0.79875507  0.06638855    -0.05200
C1433       C  0.33291182  0.80376251  0.04310864    -0.32200
C1434       C  0.29039871  0.82588240  0.04744151     0.36900
H1435       H  0.32136699  0.85109274  0.11934761     0.17200
O1436       O  0.37847117  0.80419379  0.12038488    -0.59700
H1437       H  0.33577809  0.78982550  0.02185417     0.17200
O1438       O  0.25428053  0.82884414  0.02482588    -0.59800
H1439       H  0.22194779  0.81587829  0.52764398     0.44200
H1440       H  0.39666611  0.82161820  0.13194728     0.44200
C1441       C  0.63183594  0.86015492  0.33196205    -0.04900
C1442       C  0.62388366  0.89168004  0.33519007    -0.32300
C1443       C  0.58400521  0.90446634  0.31823382     0.37000
C1444       C  0.54655234  0.88586552  0.30134616    -0.05200
C1445       C  0.54661818  0.85528330  0.30289374    -0.32200
C1446       C  0.59039457  0.84212300  0.31588089     0.36900
H1447       H  0.65028674  0.90679621  0.34893881     0.17200
O1448       O  0.58303381  0.93493175  0.31738481    -0.59700
H1449       H  0.51759812  0.84102617  0.28966311     0.17200
O1450       O  0.59497526  0.81153716  0.31000186    -0.59800
H1451       H  0.60407338  0.80722197  0.28833676     0.44200
H1452       H  0.61285287  0.93896200  0.30281942     0.44200
C1453       C  0.35699966  0.92933366  0.12889693    -0.04900
C1454       C  0.30058206  0.93810051  0.13277937    -0.32300
C1455       C  0.26016587  0.92299377  0.11444592     0.37000
C1456       C  0.27794429  0.89827559  0.09429435    -0.05200
C1457       C  0.33294738  0.90059081  0.08265868    -0.32200
C1458       C  0.37337879  0.91543396  0.10052536     0.36900
H1459       H  0.28702922  0.95213709  0.15280740     0.17200
O1460       O  0.20484594  0.92775239  0.12128516    -0.59700
H1461       H  0.34682784  0.88698628  0.06242814     0.17200
O1462       O  0.42846398  0.91212150  0.09214301    -0.59800
H1463       H  0.43793702  0.89092741  0.09420069     0.44200
H1464       H  0.19163340  0.94049617  0.10627579     0.44200
C1465       C  0.79302364  0.55849574  0.38204330    -0.04900
C1466       C  0.73787075  0.54937462  0.37601060    -0.32300
C1467       C  0.70404202  0.56369987  0.35613673     0.37000
C1468       C  0.72421758  0.58847357  0.34163004    -0.05200
C1469       C  0.78108362  0.59552321  0.34595336    -0.32200
C1470       C  0.81468820  0.58115418  0.36537283     0.36900
H1471       H  0.72017534  0.53132743  0.38718001     0.17200
O1472       O  0.65044741  0.55381317  0.35182431    -0.59700
H1473       H  0.79973564  0.61411857  0.33614370     0.17200
O1474       O  0.86835539  0.59117367  0.36914737    -0.59800
H1475       H  0.88917363  0.58217351  0.35106586     0.44200
H1476       H  0.63245850  0.55529790  0.37197614     0.44200
C1477       C  0.65203006  0.62429898  0.36111771    -0.04900
C1478       C  0.67923179  0.64135807  0.38500421    -0.32300
C1479       C  0.64773775  0.66195166  0.40471706     0.37000
C1480       C  0.58929007  0.66176500  0.40275508    -0.05200
C1481       C  0.56462517  0.63594711  0.38810572    -0.32200
C1482       C  0.59489088  0.61764787  0.36657779     0.36900
H1483       H  0.72417021  0.64339947  0.38459034     0.17200
O1484       O  0.67384769  0.68376370  0.42339111    -0.59700
H1485       H  0.52003875  0.63259836  0.38922968     0.17200
O1486       O  0.56773477  0.59408964  0.35070245    -0.59800
H1487       H  0.53570110  0.60281404  0.34109663     0.44200
H1488       H  0.69568078  0.69592174  0.41025322     0.44200
C1489       C  0.76919669  0.94938882  0.04648097    -0.04900
C1490       C  0.76852999  0.96164162  0.07683375    -0.32300
C1491       C  0.74166193  0.94692855  0.09957334     0.37000
C1492       C  0.71442192  0.91886344  0.09271219    -0.05200
C1493       C  0.71429501  0.90741477  0.06182672    -0.32200
C1494       C  0.74004422  0.92241655  0.03928907     0.36900
H1495       H  0.79194420  0.98195776  0.08330232     0.17200
O1496       O  0.74528275  0.95939524  0.12875634    -0.59700
H1497       H  0.69773100  0.88538746  0.05473354     0.17200
O1498       O  0.74110191  0.90875070  0.01044777    -0.59800
H1499       H  0.71296109  0.91963535  0.00000013     0.44200
H1500       H  0.78499925  0.95756180  0.13388883     0.44200
C1501       C  0.66434751  0.86984728  0.10475820    -0.04900
C1502       C  0.67554753  0.84074926  0.11276416    -0.32300
C1503       C  0.63750242  0.81739624  0.10915955     0.37000
C1504       C  0.58568694  0.82201760  0.09706738    -0.05200
C1505       C  0.57464636  0.84989504  0.08682445    -0.32200
C1506       C  0.61273820  0.87365263  0.09087887     0.36900
H1507       H  0.71011983  0.83611407  0.12602302     0.17200
O1508       O  0.64886470  0.79133170  0.12117242    -0.59700
H1509       H  0.53559582  0.85387816  0.07641803     0.17200
O1510       O  0.59698606  0.90129691  0.08366132    -0.59800
H1511       H  0.59440096  0.89903868  0.06155263     0.44200
H1512       H  0.67910994  0.78134339  0.10837718     0.44200
C1513       C  0.65839467  0.91055597  0.14478434    -0.04900
C1514       C  0.62343496  0.93591791  0.14412602    -0.32300
C1515       C  0.57662029  0.94170783  0.16421766     0.37000
C1516       C  0.56236622  0.92177424  0.18564668    -0.05200
C1517       C  0.59900255  0.89764228  0.18694762    -0.32200
C1518       C  0.64555147  0.89218705  0.16802808     0.36900
H1519       H  0.62989514  0.95039665  0.12675299     0.17200
O1520       O  0.54298472  0.96576291  0.16110147    -0.59700
H1521       H  0.59022598  0.88062704  0.20145534     0.17200
O1522       O  0.67727303  0.86755451  0.17208204    -0.59800
H1523       H  0.65173873  0.85007171  0.17164167     0.44200
H1524       H  0.56682925  0.98377872  0.16536631     0.44200
C1525       C  0.76973377  0.79834977  0.26255881    -0.04900
C1526       C  0.79144578  0.79581702  0.29113983    -0.32300
C1527       C  0.76690785  0.81152636  0.31747167     0.37000
C1528       C  0.71959783  0.83021350  0.31569654    -0.05200
C1529       C  0.70533674  0.83604243  0.28673431    -0.32200
C1530       C  0.72498574  0.81883460  0.26128665     0.36900
H1531       H  0.82444842  0.77989016  0.29338329     0.17200
O1532       O  0.78650522  0.80653353  0.34485314    -0.59700
H1533       H  0.67501009  0.85281212  0.28286202     0.17200
O1534       O  0.69507207  0.82022185  0.23575105    -0.59800
H1535       H  0.70104470  0.84072051  0.22999530     0.44200
H1536       H  0.82090516  0.81873319  0.34744020     0.44200
C1537       C  0.73196307  0.68080167  0.27194310    -0.04900
C1538       C  0.71333686  0.68982175  0.30128807    -0.32300
C1539       C  0.70673761  0.67006034  0.32287159     0.37000
C1540       C  0.71620620  0.63854880  0.31576817    -0.05200
C1541       C  0.74189825  0.63008640  0.28720785    -0.32200
C1542       C  0.74934722  0.65054014  0.26556027     0.36900
H1543       H  0.70034850  0.71263378  0.30777778     0.17200
O1544       O  0.68634677  0.68258201  0.34988151    -0.59700
H1545       H  0.75127749  0.60662400  0.28052555     0.17200
O1546       O  0.77195778  0.64015362  0.23816882    -0.59800
H1547       H  0.81192138  0.64565505  0.23940475     0.44200
H1548       H  0.64550814  0.68380696  0.34762959     0.44200
C1549       C  0.81104288  0.84306805  0.15489610    -0.04900
C1550       C  0.80144539  0.87145391  0.17145897    -0.32300
C1551       C  0.77485276  0.89425015  0.15826057     0.37000
C1552       C  0.75669136  0.88783794  0.12859249    -0.05200
C1553       C  0.78847836  0.86607579  0.11022039    -0.32200
C1554       C  0.81377895  0.84250624  0.12342777     0.36900
H1555       H  0.80645938  0.87499038  0.19537208     0.17200
O1556       O  0.75793340  0.91971938  0.17595623    -0.59700
H1557       H  0.78264110  0.86312636  0.08627490     0.17200
O1558       O  0.83429237  0.81791550  0.10562227    -0.59800
H1559       H  0.80221377  0.80910736  0.09412123     0.44200
H1560       H  0.79244721  0.93133991  0.18063313     0.44200
C1561       C  0.15745963  0.57231936  0.41283672    -0.04900
C1562       C  0.17389003  0.59913511  0.42960536    -0.32300
C1563       C  0.20091933  0.62229839  0.41597661     0.37000
C1564       C  0.21412015  0.61902235  0.38472612    -0.05200
C1565       C  0.19835604  0.59122605  0.36857964    -0.32200
C1566       C  0.17117620  0.56839306  0.38220150     0.36900
H1567       H  0.16193853  0.60317283  0.45306349     0.17200
O1568       O  0.21102346  0.64884503  0.43337418    -0.59700
H1569       H  0.20337946  0.58713537  0.34465578     0.17200
O1570       O  0.15402969  0.54310013  0.36465969    -0.59800
H1571       H  0.18216046  0.52754062  0.36740741     0.44200
H1572       H  0.17522746  0.65993350  0.43449129     0.44200
C1573       C  0.27474875  0.66778670  0.38707293    -0.04900
C1574       C  0.27112743  0.69941307  0.39430550    -0.32300
C1575       C  0.31891356  0.71794644  0.39739828     0.37000
C1576       C  0.37262341  0.70561186  0.39149824    -0.05200
C1577       C  0.37619777  0.67400371  0.38794787    -0.32200
C1578       C  0.32887594  0.65557870  0.38927829     0.36900
H1579       H  0.23276033  0.71119159  0.39574340     0.17200
O1580       O  0.31262792  0.74831374  0.40553879    -0.59700
H1581       H  0.41507148  0.66272865  0.38221840     0.17200
O1582       O  0.33568693  0.62505329  0.38897594    -0.59800
H1583       H  0.36434111  0.61856184  0.37339420     0.44200
H1584       H  0.28536554  0.75556525  0.39174694     0.44200
C1585       C  0.78108703  0.58463762  0.03066252    -0.04900
C1586       C  0.73975221  0.59980740  0.01679964    -0.32300
C1587       C  0.71007106  0.62416565  0.03260112     0.37000
C1588       C  0.72231836  0.63434153  0.06311565    -0.05200
C1589       C  0.76446515  0.61844517  0.07618128    -0.32200
C1590       C  0.79236189  0.59404003  0.06082497     0.36900
H1591       H  0.73059859  0.59294874  0.99353968     0.17200
O1592       O  0.66704678  0.63605192  0.01830302    -0.59700
H1593       H  0.77338621  0.62352640  0.09967192     0.17200
O1594       O  0.82919625  0.57841505  0.07613956    -0.59800
H1595       H  0.86155915  0.59197023  0.08011938     0.44200
H1596       H  0.68475781  0.64673559  0.00248072     0.44200
C1597       C  0.53975852  0.70591240  0.05623243    -0.04900
C1598       C  0.59336976  0.70899486  0.04335093    -0.32300
C1599       C  0.63942085  0.69192465  0.05115876     0.37000
C1600       C  0.63256214  0.66928942  0.07056052    -0.05200
C1601       C  0.57737703  0.66506223  0.08124030    -0.32200
C1602       C  0.53367445  0.68413690  0.07628884     0.36900
H1603       H  0.60121429  0.72682780  0.02957077     0.17200
O1604       O  0.69163739  0.69875033  0.04105561    -0.59700
H1605       H  0.56800285  0.65059989  0.09812148     0.17200
O1606       O  0.48717086  0.68342349  0.09439310    -0.59800
H1607       H  0.49565496  0.69685807  0.11284305     0.44200
H1608       H  0.70271222  0.71727139  0.05379504     0.44200
C1609       C  0.71495198  0.68209812  0.10405646    -0.04900
C1610       C  0.77395232  0.68405542  0.10672577    -0.32300
C1611       C  0.79908176  0.70039889  0.13204036     0.37000
C1612       C  0.76602030  0.71807657  0.15360995    -0.05200
C1613       C  0.70918619  0.72047286  0.14743981    -0.32200
C1614       C  0.68362880  0.70270944  0.12430347     0.36900
H1615       H  0.80115471  0.67134846  0.09063341     0.17200
O1616       O  0.85534024  0.69845398  0.13522782    -0.59700
H1617       H  0.68243943  0.73501167  0.16245946     0.17200
O1618       O  0.62668525  0.70335903  0.12450563    -0.59800
H1619       H  0.61675662  0.72246730  0.11683786     0.44200
H1620       H  0.86134381  0.67890523  0.14297976     0.44200
C1621       C  0.63859843  0.60471557  0.30684659    -0.04900
C1622       C  0.60376739  0.62881212  0.30115645    -0.32300
C1623       C  0.56440663  0.62677352  0.27899416     0.37000
C1624       C  0.55031702  0.59864050  0.26383178    -0.05200
C1625       C  0.58667003  0.57432537  0.26760050    -0.32200
C1626       C  0.63119826  0.57737213  0.28827805     0.36900
H1627       H  0.60790509  0.65055069  0.31373482     0.17200
O1628       O  0.54485815  0.65314278  0.27022300    -0.59700
H1629       H  0.58202478  0.55317881  0.25366376     0.17200
O1630       O  0.66722565  0.55391312  0.28939357    -0.59800
H1631       H  0.69585809  0.55619299  0.27364477     0.44200
H1632       H  0.52820018  0.66477884  0.28832791     0.44200
C1633       C  0.33673139  0.63816483  0.28718205    -0.04900
C1634       C  0.31003160  0.66483955  0.29667216    -0.32300
C1635       C  0.27458892  0.66726836  0.32164710     0.37000
C1636       C  0.26436811  0.64200305  0.33794466    -0.05200
C1637       C  0.29158518  0.61479561  0.32733981    -0.32200
C1638       C  0.32659954  0.61271929  0.30194704     0.36900
H1639       H  0.31943070  0.68450903  0.28557939     0.17200
O1640       O  0.25522076  0.69542262  0.33217564    -0.59700
H1641       H  0.29056258  0.59566124  0.33975467     0.17200
O1642       O  0.35213714  0.58593918  0.29210622    -0.59800
H1643       H  0.38439654  0.58466896  0.30531046     0.44200
H1644       H  0.24323728  0.70519249  0.31468797     0.44200
C1645       C  0.66300163  0.63259129  0.10713162    -0.04900
C1646       C  0.63100909  0.60748573  0.09529345    -0.32300
C1647       C  0.60175990  0.59006330  0.11412626     0.37000
C1648       C  0.60551965  0.59693442  0.14524710    -0.05200
C1649       C  0.64581953  0.61752544  0.15658470    -0.32200
C1650       C  0.67600528  0.63426771  0.13799023     0.36900
H1651       H  0.62437434  0.60326808  0.07145007     0.17200
O1652       O  0.56709669  0.56779234  0.10195604    -0.59700
H1653       H  0.65254064  0.62224414  0.18032957     0.17200
O1654       O  0.71792135  0.65171048  0.15078514    -0.59800
H1655       H  0.74939713  0.63779261  0.15260658     0.44200
H1656       H  0.58692130  0.54875887  0.10391853     0.44200
C1657       C  0.20490479  0.89045395  0.33639505    -0.04900
C1658       C  0.20813358  0.88427864  0.36659153    -0.32300
C1659       C  0.18221239  0.90292109  0.39054530     0.37000
C1660       C  0.15141767  0.92843008  0.38511500    -0.05200
C1661       C  0.14851631  0.93487591  0.35541464    -0.32200
C1662       C  0.17433263  0.91653925  0.33152292     0.36900
H1663       H  0.22789946  0.86393813  0.37180332     0.17200
O1664       O  0.18309360  0.89437100  0.41879690    -0.59700
H1665       H  0.12337633  0.95364449  0.35039805     0.17200
O1666       O  0.16649097  0.92350033  0.30305190    -0.59800
H1667       H  0.18881778  0.94187748  0.30136231     0.44200
H1668       H  0.21261221  0.90677550  0.42921139     0.44200
C1669       C  0.26876849  0.84359570  0.31760730    -0.04900
C1670       C  0.31535078  0.85337992  0.33496744    -0.32300
C1671       C  0.35824162  0.83371643  0.34100897     0.37000
C1672       C  0.35596312  0.80307989  0.32978755    -0.05200
C1673       C  0.31119895  0.79313158  0.31203833    -0.32200
C1674       C  0.26944061  0.81271457  0.30484497     0.36900
H1675       H  0.31879162  0.87673547  0.34399331     0.17200
O1676       O  0.40068572  0.84454224  0.35909865    -0.59700
H1677       H  0.30930182  0.76972397  0.30283077     0.17200
O1678       O  0.23043456  0.80105001  0.28485774    -0.59800
H1679       H  0.25068514  0.79008526  0.26750921     0.44200
H1680       H  0.42520211  0.85578059  0.34631875     0.44200
C1681       C  0.26235669  0.88410897  0.28585915    -0.04900
C1682       C  0.29379533  0.90986915  0.29609643    -0.32300
C1683       C  0.33773970  0.92069131  0.27905532     0.37000
C1684       C  0.35002359  0.90727331  0.24955793    -0.05200
C1685       C  0.31838709  0.88203066  0.23898537    -0.32200
C1686       C  0.27769051  0.86971720  0.25694059     0.36900
H1687       H  0.28834211  0.92032543  0.31884334     0.17200
O1688       O  0.37283482  0.94180223  0.29307227    -0.59700
H1689       H  0.32869201  0.86975929  0.21742927     0.17200
O1690       O  0.25528818  0.84255657  0.24629980    -0.59800
H1691       H  0.28716013  0.82851840  0.24226138     0.44200
H1692       H  0.34929644  0.95951526  0.29998165     0.44200
C1693       C  0.17349471  0.65959766  0.35863558    -0.04900
C1694       C  0.14908768  0.64419702  0.33283978    -0.32300
C1695       C  0.12984325  0.66012855  0.31029263     0.37000
C1696       C  0.13233534  0.69175521  0.31419300    -0.05200
C1697       C  0.13488271  0.70552704  0.34412431    -0.32200
C1698       C  0.15219827  0.68866089  0.36684205     0.36900
H1699       H  0.15476277  0.62048023  0.32689828     0.17200
O1700       O  0.11320013  0.64436872  0.28410260    -0.59700
H1701       H  0.12576597  0.72908111  0.34995002     0.17200
O1702       O  0.14247561  0.69921807  0.39629963    -0.59800
H1703       H  0.10450692  0.69217373  0.40100873     0.44200
H1704       H  0.07239127  0.64194704  0.28655047     0.44200
C1705       C  0.19301391  0.81027575  0.15253124    -0.04900
C1706       C  0.21661745  0.83831292  0.16156964    -0.32300
C1707       C  0.22452572  0.86014710  0.14227122     0.37000
C1708       C  0.21234243  0.85410381  0.11129462    -0.05200
C1709       C  0.18485031  0.82630366  0.10273063    -0.32200
C1710       C  0.17566559  0.80464917  0.12273216     0.36900
H1711       H  0.23178112  0.84347414  0.18403472     0.17200
O1712       O  0.24933496  0.88591177  0.15431485    -0.59700
H1713       H  0.17434911  0.82035781  0.07951074     0.17200
O1714       O  0.14979149  0.77824943  0.11275199    -0.59800
H1715       H  0.17833094  0.76636308  0.10038413     0.44200
H1716       H  0.28723021  0.87985757  0.15941705     0.44200
C1717       C  0.17187211  0.85235890  0.29661867    -0.04900
C1718       C  0.14392442  0.83210694  0.31377506    -0.32300
C1719       C  0.11100647  0.80892154  0.29937330     0.37000
C1720       C  0.10851196  0.80547928  0.26795414    -0.05200
C1721       C  0.11228333  0.83277673  0.25557005    -0.32200
C1722       C  0.14714668  0.85579720  0.26882847     0.36900
H1723       H  0.15202141  0.83222538  0.33734934     0.17200
O1724       O  0.07654011  0.79260506  0.31594229    -0.59700
H1725       H  0.09492764  0.83459969  0.23385105     0.17200
O1726       O  0.15923060  0.87986218  0.25362124    -0.59800
H1727       H  0.12390717  0.89125475  0.25348449     0.44200
H1728       H  0.04419689  0.80586200  0.32180167     0.44200
C1729       C  0.19239757  0.59898485  0.10484156    -0.04900
C1730       C  0.14883806  0.61162910  0.08969733    -0.32300
C1731       C  0.12228492  0.59612707  0.06529857     0.37000
C1732       C  0.13570438  0.56593773  0.05533621    -0.05200
C1733       C  0.17788743  0.55238759  0.07027083    -0.32200
C1734       C  0.20635015  0.56841852  0.09454325     0.36900
H1735       H  0.13801984  0.63505908  0.09531981     0.17200
O1736       O  0.08386875  0.61137215  0.05067153    -0.59700
H1737       H  0.18907570  0.52923667  0.06311062     0.17200
O1738       O  0.25085070  0.55463353  0.10578184    -0.59800
H1739       H  0.23524636  0.53713187  0.11470446     0.44200
H1740       H  0.10472781  0.61864551  0.03368692     0.44200
C1741       C  0.25190447  0.64161529  0.09975715    -0.04900
C1742       C  0.23272005  0.67125776  0.09933521    -0.32300
C1743       C  0.25806116  0.69041333  0.08116959     0.37000
C1744       C  0.30472325  0.68046607  0.06314841    -0.05200
C1745       C  0.31457862  0.64946316  0.05802108    -0.32200
C1746       C  0.28783638  0.62989231  0.07571587     0.36900
H1747       H  0.19863861  0.68037140  0.11359639     0.17200
O1748       O  0.23853791  0.71920176  0.08304304    -0.59700
H1749       H  0.34632586  0.64060088  0.04201636     0.17200
O1750       O  0.30042235  0.59984178  0.07096518    -0.59800
H1751       H  0.34042983  0.59811745  0.07554117     0.44200
H1752       H  0.21199172  0.71911630  0.06643480     0.44200
C1753       C  0.28226681  0.60818279  0.13914957    -0.04900
C1754       C  0.33636504  0.62051843  0.13624495    -0.32300
C1755       C  0.38023958  0.61469026  0.15454664     0.37000
C1756       C  0.37440661  0.59391553  0.17559486    -0.05200
C1757       C  0.32107625  0.58103859  0.17874148    -0.32200
C1758       C  0.27535466  0.58857284  0.16150800     0.36900
H1759       H  0.34453385  0.63814343  0.12238220     0.17200
O1760       O  0.42726680  0.63201587  0.15352326    -0.59700
H1761       H  0.31298021  0.56725256  0.19650410     0.17200
O1762       O  0.22288993  0.57903181  0.16859802    -0.59800
H1763       H  0.22474651  0.55680760  0.16691335     0.44200
H1764       H  0.41818659  0.65125108  0.16585577     0.44200
C1765       C  0.20131742  0.64326636  0.15040066    -0.04900
C1766       C  0.23521689  0.66531615  0.16621292    -0.32300
C1767       C  0.21368954  0.68919869  0.18572421     0.37000
C1768       C  0.15560931  0.69335969  0.19000191    -0.05200
C1769       C  0.12118416  0.66991471  0.17718315    -0.32200
C1770       C  0.14346802  0.64467742  0.15832331     0.36900
H1771       H  0.27967929  0.66532966  0.16228281     0.17200
O1772       O  0.25059457  0.70883024  0.20052127    -0.59700
H1773       H  0.07711711  0.67050068  0.18225057     0.17200
O1774       O  0.10881487  0.62115495  0.14923466    -0.59800
H1775       H  0.07717992  0.62985569  0.13930261     0.44200
H1776       H  0.26790062  0.72007257  0.18500246     0.44200
C1777       C  0.23068568  0.62262190  0.62573785    -0.01900
C1778       C  0.13580933  0.72272527  0.71233417     0.30600
C1779       C  0.11960162  0.77508762  0.75080149     0.30600
C1780       C  0.16424732  0.75112381  0.70309444    -0.05600
C1781       C  0.07461430  0.73373985  0.71667820    -0.06400
C1782       C  0.15274015  0.72181813  0.74507714    -0.06200
C1783       C  0.15848424  0.77714284  0.72305895    -0.05600
C1784       C  0.06772057  0.76053622  0.73617178    -0.06400
C1785       C  0.14485595  0.74820668  0.76485439    -0.06300
C1786       C  0.17300762  0.80042722  0.70688838    -0.31600
N1787       N  0.18301721  0.79034472  0.67782238     0.14900
C1788       C  0.17711061  0.76002511  0.67510694    -0.31600
H1789       H  0.17933150  0.74535264  0.65429625     0.16800
C1790       C  0.01257851  0.76716029  0.73848207    -0.30600
N1791       N  0.98458132  0.74552992  0.72130753     0.13600
C1792       C  0.02153517  0.72510099  0.70758709    -0.30600
C1793       C  0.13716175  0.73859332  0.79291415    -0.30900
N1794       N  0.13776985  0.70826628  0.79116097     0.14100
H1795       H  0.13222794  0.75261113  0.81357719     0.16700
C1796       C  0.14750972  0.69806088  0.76190269    -0.30900
H1797       H  0.14825157  0.67490855  0.75230921     0.16700
H1798       H  0.01014451  0.70545080  0.69278652     0.16700
H1799       H  0.17321583  0.82382890  0.71485102     0.16800
H1800       H  0.99439504  0.78633449  0.75196631     0.16700
C1801       C  0.23031282  0.86845401  0.81008709    -0.01900
C1802       C  0.41808304  0.59322077  0.70251020     0.30600
C1803       C  0.49940900  0.59617780  0.74473278     0.30600
C1804       C  0.41841070  0.62203611  0.72438830    -0.05600
C1805       C  0.41477135  0.56900465  0.72422269    -0.06400
C1806       C  0.47848245  0.58971684  0.69080329    -0.06200
C1807       C  0.45996021  0.62336223  0.74640567    -0.05600
C1808       C  0.45667965  0.57088051  0.74640676    -0.06400
C1809       C  0.51874226  0.59115204  0.71240511    -0.06300
C1810       C  0.43389480  0.63507824  0.77273903    -0.31600
N1811       N  0.38027506  0.64061384  0.76789984     0.14900
C1812       C  0.37050967  0.63377737  0.73869508    -0.31600
H1813       H  0.32895066  0.63064060  0.72995481     0.16800
C1814       C  0.46397717  0.54265509  0.75416369    -0.30600
N1815       N  0.43036618  0.02436234  0.73800988     0.13600
C1816       C  0.40145681  0.53918060  0.71866869    -0.30600
C1817       C  0.56955837  0.58876888  0.69847876    -0.30900
N1818       N  0.56221810  0.58748994  0.66860280     0.14100
H1819       H  0.60916451  0.59040025  0.70957821     0.16700
C1820       C  0.50647597  0.58707919  0.66363185    -0.30900
H1821       H  0.48778712  0.58787924  0.64208959     0.16700
H1822       H  0.37972985  0.02814961  0.69980111     0.16700
H1823       H  0.44941041  0.63288831  0.79482369     0.16800
H1824       H  0.49691507  0.03587094  0.76800764     0.16700
C1825       C  0.68204254  0.65476952  0.58748317    -0.01900
C1826       C  0.23288953  0.64759515  0.87159691    -0.01900
C1827       C  0.78388831  0.73565926  0.68495972     0.30600
C1828       C  0.78375329  0.77488237  0.73639803     0.30600
C1829       C  0.74482630  0.72760321  0.71102656    -0.05600
C1830       C  0.84050663  0.73793928  0.70178179    -0.06400
C1831       C  0.77410628  0.76911870  0.68136802    -0.06200
C1832       C  0.74278085  0.74874337  0.73637954    -0.05600
C1833       C  0.83892487  0.75797049  0.72879585    -0.06400
C1834       C  0.77644839  0.78853521  0.70733248    -0.06300
C1835       C  0.73458373  0.73286989  0.76060579    -0.31600
N1836       N  0.73365984  0.70280573  0.75237531     0.14900
C1837       C  0.73974817  0.69951069  0.72192875    -0.31600
H1838       H  0.74690338  0.67841485  0.70830598     0.16800
C1839       C  0.89153763  0.76119030  0.73909259    -0.30600
N1840       N  0.92607297  0.74434683  0.71972539     0.13600
C1841       C  0.89600765  0.73001327  0.69696925    -0.30600
C1842       C  0.79807660  0.81527235  0.69981158    -0.30900
N1843       N  0.80384167  0.81458369  0.66980067     0.14100
H1844       H  0.81059176  0.83365901  0.71595617     0.16700
C1845       C  0.79122717  0.78584276  0.65845718    -0.30900
H1846       H  0.79576286  0.77672683  0.63529252     0.16700
H1847       H  0.91414820  0.71686182  0.67763750     0.16700
H1848       H  0.73902891  0.74312914  0.78325434     0.16800
H1849       H  0.90404148  0.77623915  0.75829278     0.16700
C1850       C  0.69720305  0.89610861  0.61679774    -0.01900
C1851       C  0.68401450  0.61241132  0.83283942    -0.01900
C1852       C  0.40565809  0.91397033  0.73203397     0.30600
C1853       C  0.50557842  0.92191498  0.70264725     0.30600
C1854       C  0.40560805  0.90632831  0.69805276    -0.05600
C1855       C  0.42761995  0.94604299  0.73419059    -0.06400
C1856       C  0.45473751  0.89673838  0.74229758    -0.06200
C1857       C  0.45706368  0.90957413  0.68279480    -0.05600
C1858       C  0.47916309  0.95037779  0.71951508    -0.06400
C1859       C  0.50615083  0.90199684  0.72841677    -0.06300
C1860       C  0.44357599  0.91906593  0.65559578    -0.31600
N1861       N  0.38799346  0.92309652  0.65418354     0.14900
C1862       C  0.36531240  0.91603768  0.68012333    -0.28000
H1863       H  0.32257594  0.92053780  0.68723951     0.16800
C1864       C  0.48424673  0.47988597  0.71880702    -0.30600
N1865       N  0.43885733  0.49329315  0.73276778     0.13600
C1866       C  0.40147878  0.47295026  0.74009034    -0.30600
C1867       C  0.54490499  0.90247384  0.75085098    -0.30900
N1868       N  0.52009861  0.89551441  0.77619456     0.14100
H1869       H  0.58841384  0.90853597  0.74916002     0.16700
C1870       C  0.46544384  0.89174504  0.77129057    -0.30900
H1871       H  0.43500633  0.88745387  0.78833706     0.16700
H1872       H  0.36048372  0.47811084  0.74965766     0.16700
H1873       H  0.47316535  0.92550288  0.63919076     0.16800
H1874       H  0.51905836  0.49152402  0.70984762     0.16700
C1875       C  0.24191505  0.86827798  0.58605044    -0.01900
C1876       C  0.68582272  0.84450533  0.84447792    -0.01900
C1877       C  0.49484275  0.72946586  0.55386283     0.30600
C1878       C  0.41636797  0.77411409  0.56006150     0.30600
C1879       C  0.50034503  0.75275122  0.58168724    -0.05600
C1880       C  0.49544353  0.75046306  0.52896340    -0.06400
C1881       C  0.43334515  0.71953198  0.55383877    -0.06200
C1882       C  0.45930174  0.77550731  0.58497727    -0.05600
C1883       C  0.45564949  0.77401861  0.53296918    -0.06400
C1884       C  0.39471173  0.74234331  0.55698450    -0.06300
C1885       C  0.48624890  0.80188727  0.59488106    -0.31600
N1886       N  0.54104562  0.79706587  0.59656007     0.14900
C1887       C  0.54995898  0.76736222  0.58931925    -0.31600
H1888       H  0.59066392  0.75803954  0.58340086     0.16800
C1889       C  0.44988786  0.78600582  0.00837972    -0.30600
N1890       N  0.48264377  0.76964108  0.98829026     0.13600
C1891       C  0.50874347  0.74769182  0.00097971    -0.30600
C1892       C  0.34286586  0.73001860  0.55555832    -0.30900
N1893       N  0.34760874  0.69969281  0.55339603     0.14100
H1894       H  0.30495504  0.74289138  0.55652915     0.16700
C1895       C  0.40313360  0.69316902  0.55068356    -0.30900
H1896       H  0.42072487  0.67083960  0.54856864     0.16700
H1897       H  0.53096926  0.72900798  0.98878059     0.16700
H1898       H  0.46813546  0.82397289  0.59517471     0.16800
H1899       H  0.42011452  0.80243885  0.00285834     0.16700
C1900       C  0.51778541  0.76118364  0.88172877     0.30600
C1901       C  0.42578720  0.72672616  0.89033938     0.30600
C1902       C  0.52930228  0.72790727  0.88458949    -0.05600
C1903       C  0.48341357  0.77058058  0.91028759    -0.06400
C1904       C  0.47381523  0.76085235  0.85751826    -0.06200
C1905       C  0.48245353  0.71073344  0.89009508    -0.05600
C1906       C  0.43510949  0.75295978  0.91464470    -0.06400
C1907       C  0.42692794  0.74244311  0.86144571    -0.06300
C1908       C  0.50116562  0.68955074  0.90758644    -0.31600
N1909       N  0.55738157  0.68917596  0.90790924     0.14900
C1910       C  0.57446139  0.71407722  0.89588365    -0.31600
H1911       H  0.61717986  0.72155128  0.89500945     0.16800
C1912       C  0.42973434  0.75201715  0.94484000    -0.30600
N1913       N  0.47157718  0.76794987  0.95815049     0.13600
C1914       C  0.50492582  0.77875553  0.93800951    -0.30600
C1915       C  0.38268048  0.75652857  0.84970848    -0.30900
N1916       N  0.39914774  0.78282135  0.84037661     0.14100
H1917       H  0.33958961  0.74987503  0.85128600     0.16700
C1918       C  0.45439191  0.78571803  0.84507043    -0.30900
H1919       H  0.47796366  0.80596832  0.84289645     0.16700
H1920       H  0.54579671  0.78797369  0.94300747     0.16700
H1921       H  0.47574904  0.67469429  0.91942333     0.16800
H1922       H  0.40259102  0.73730713  0.95594732     0.16700
O1923       O  0.04471817  0.55601332  0.53699100    -0.74700
O1924       O  0.12020753  0.52804558  0.01221281    -0.53600
C1925       C  0.09637833  0.54878069  0.53479208     0.79000
O1926       O  0.85917940  0.94842101  0.52728675    -0.59300
O1927       O  0.79773506  0.97539856  0.00327315    -0.52300
C1928       C  0.80896680  0.95661164  0.52282471     0.71100
O1929       O  0.04342628  0.93670524  0.52230706    -0.73800
O1930       O  0.11973464  0.95822629  0.99808832    -0.54400
C1931       C  0.09609485  0.93893135  0.51675257     0.77100
O1932       O  0.86755173  0.56513348  0.52282682    -0.59000
O1933       O  0.80102236  0.54093234  0.99451058    -0.52100
C1934       C  0.81661049  0.56161597  0.51531525     0.73600
Zr1935     Zr  0.95855375  0.54437146  0.51175489     2.54700
O1936       O  0.94174010  0.54803220  0.56555695    -0.79600
O1937       O  0.96914384  0.59793583  0.50824371    -0.93000
Zr1938     Zr  0.95598157  0.95820346  0.00868290     2.64700
O1939       O  0.95433806  0.95729063  0.56250523    -0.97900
O1940       O  0.93945290  0.90429518  0.00422219    -0.80000
O1941       O  0.01227401  0.99863374  0.51253824    -0.83300
O1942       O  0.90045110  0.50183125  0.50877127    -2.18100
O1943       O  0.88260568  0.54753041  0.90177089    -0.66700
O1944       O  0.80873789  0.52612683  0.92388512    -0.51300
C1945       C  0.83003862  0.54219520  0.90402712     0.72000
O1946       O  0.06020632  0.93841245  0.90138243    -0.59600
O1947       O  0.12802464  0.96281306  0.92989168    -0.51600
C1948       C  0.11150265  0.94431720  0.90734078     0.73800
O1949       O  0.87675551  0.93044560  0.90826239    -0.71000
O1950       O  0.80601071  0.95804424  0.93277466    -0.49700
C1951       C  0.82494925  0.93561091  0.91451836     0.75200
O1952       O  0.06671604  0.55430685  0.91515050    -0.66400
O1953       O  0.12997591  0.53275092  0.94367228    -0.53600
C1954       C  0.11636674  0.55124486  0.92487898     0.73600
Zr1955     Zr  0.97153895  0.53655814  0.92361126     2.77500
O1956       O  0.98518445  0.52720183  0.86960862    -0.97100
O1957       O  0.96271702  0.59091298  0.92597088    -0.77900
Zr1958     Zr  0.96753904  0.95160013  0.92146807     2.70100
O1959       O  0.96194534  0.95123404  0.86746867    -0.79200
O1960       O  0.98064975  0.89774965  0.92164583    -0.98300
Zr1961     Zr  0.07811102  0.99668119  0.96980164     2.21500
Zr1962     Zr  0.85034696  0.49885141  0.96423201     2.11100
O1963       O  0.91291616  0.49358902  0.92155278    -2.47000
O1964       O  0.02499543  0.49230058  0.92428119    -0.79000
O1965       O  0.91021384  0.54194977  0.96581742    -0.71200
O1966       O  0.01729568  0.95372448  0.96624090    -2.32100
O1967       O  0.02196866  0.54055224  0.96882116    -2.28300
O1968       O  0.90563605  0.95543126  0.96365414    -0.72900
H1969       H  0.87621680  0.00344984  0.52628979     0.79100
H1970       H  0.03853721  0.93534584  0.96493617     0.80100
H1971       H  0.89233891  0.49129380  0.90322392     0.82400
H1972       H  0.04507976  0.55827215  0.97079566     0.80000
H1973       H  0.90784830  0.90098095  0.99043611     0.43000
H1974       H  0.96516405  0.89339873  0.94121630     0.42000
H1975       H  0.94616349  0.93135049  0.86026303     0.41700
H1976       H  0.99889284  0.54652304  0.86364536     0.39600
H1977       H  0.99681079  0.59905785  0.93591697     0.42700
H1978       H  0.01003810  0.60180645  0.00265150     0.37500
H1979       H  0.95259094  0.56881179  0.57309771     0.43600
H1980       H  0.92585517  0.97241694  0.56998432     0.40000
H1981       H  0.01772958  0.51357927  0.86669123     0.45000
H1982       H  0.96034607  0.60771672  0.52865032     0.43700
H1983       H  0.93817400  0.93783314  0.56667583     0.43800
H1984       H  0.95432232  0.88819027  0.90679874     0.44200
C1985       C  0.72333285  0.86803492  0.86350054    -0.04900
C1986       C  0.73302184  0.86682907  0.89429161    -0.32300
C1987       C  0.76317497  0.88950994  0.91156305     0.37000
C1988       C  0.78580349  0.91389357  0.89835559    -0.05200
C1989       C  0.78033341  0.91411316  0.86751504    -0.32200
C1990       C  0.75023400  0.89173115  0.85017233     0.36900
H1991       H  0.71773326  0.84821751  0.90535864     0.17200
O1992       O  0.77308011  0.88673048  0.94099814    -0.59700
H1993       H  0.80057690  0.93160985  0.85653819     0.17200
O1994       O  0.74814494  0.89305334  0.81990717    -0.59800
H1995       H  0.72812182  0.91187843  0.81732202     0.44200
H1996       H  0.73640529  0.88985557  0.95135818     0.44200
C1997       C  0.56924543  0.78094140  0.87687692    -0.04900
C1998       C  0.57184972  0.81078221  0.89053362    -0.32300
C1999       C  0.61544730  0.83014147  0.88440937     0.37000
C2000       C  0.65790406  0.82057293  0.86290564    -0.05200
C2001       C  0.65866737  0.78956319  0.85217182    -0.32200
C2002       C  0.61361938  0.77060739  0.85749903     0.36900
H2003       H  0.53772982  0.82033847  0.90449043     0.17200
O2004       O  0.61228200  0.85963265  0.89672224    -0.59700
H2005       H  0.68846523  0.78046625  0.83538834     0.17200
O2006       O  0.61033854  0.74309910  0.84083528    -0.59800
H2007       H  0.64444707  0.73238729  0.84540459     0.44200
H2008       H  0.57818532  0.86796347  0.88870148     0.44200
C2009       C  0.19962262  0.87913405  0.56347669    -0.04900
C2010       C  0.22065816  0.89196729  0.53810155    -0.32300
C2011       C  0.18841173  0.91121328  0.52254387     0.37000
C2012       C  0.13282474  0.91792562  0.53149988    -0.05200
C2013       C  0.11031367  0.90332237  0.55501171    -0.32200
C2014       C  0.14226458  0.88463387  0.57092263     0.36900
H2015       H  0.26396057  0.88874641  0.53143985     0.17200
O2016       O  0.21189555  0.92321965  0.49859747    -0.59700
H2017       H  0.06740475  0.90726964  0.56225688     0.17200
O2018       O  0.11639268  0.87326945  0.59457004    -0.59800
H2019       H  0.11538956  0.88996905  0.61107713     0.44200
H2020       H  0.23435523  0.94049310  0.50739523     0.44200
C2021       C  0.28510807  0.84300032  0.57504972    -0.04900
C2022       C  0.32213952  0.83608629  0.59730214    -0.32300
C2023       C  0.35784489  0.81203037  0.59360223     0.37000
C2024       C  0.36925951  0.79756691  0.56480478    -0.05200
C2025       C  0.33256416  0.80346343  0.54179209    -0.32200
C2026       C  0.28985375  0.82546892  0.54690476     0.36900
H2027       H  0.32146346  0.84867450  0.61910542     0.17200
O2028       O  0.37639791  0.80088715  0.61888761    -0.59700
H2029       H  0.33540366  0.79021344  0.52016675     0.17200
O2030       O  0.25389619  0.82924342  0.52443547    -0.59800
H2031       H  0.22408117  0.81421422  0.02742581     0.44200
H2032       H  0.39417417  0.81781900  0.63141949     0.44200
C2033       C  0.63330172  0.85932592  0.83199517    -0.04900
C2034       C  0.62323800  0.89066639  0.83593047    -0.32300
C2035       C  0.58397303  0.90336654  0.81849867     0.37000
C2036       C  0.54937746  0.88467588  0.79984601    -0.05200
C2037       C  0.55184322  0.85386659  0.79989230    -0.32200
C2038       C  0.59430453  0.84098421  0.81434924     0.36900
H2039       H  0.64739142  0.90579205  0.85096228     0.17200
O2040       O  0.58061310  0.93395390  0.81914553    -0.59700
H2041       H  0.52499792  0.83952453  0.78534856     0.17200
O2042       O  0.59998876  0.81042111  0.80873021    -0.59800
H2043       H  0.61179295  0.80613101  0.78742277     0.44200
H2044       H  0.61104089  0.93944866  0.80558731     0.44200
C2045       C  0.35652589  0.92914619  0.62857777    -0.04900
C2046       C  0.29999394  0.93764701  0.63259691    -0.32300
C2047       C  0.25959473  0.92191306  0.61474382     0.37000
C2048       C  0.27766447  0.89696960  0.59492671    -0.05200
C2049       C  0.33237625  0.89939659  0.58298477    -0.32200
C2050       C  0.37266173  0.91500742  0.60027392     0.36900
H2051       H  0.28649981  0.95188585  0.65250767     0.17200
O2052       O  0.20426727  0.92635962  0.62178701    -0.59700
H2053       H  0.34624107  0.88564916  0.56284330     0.17200
O2054       O  0.42763383  0.91208139  0.59155899    -0.59800
H2055       H  0.43780466  0.89098829  0.59366180     0.44200
H2056       H  0.19186682  0.94138178  0.60880942     0.44200
C2057       C  0.79351716  0.55613592  0.88175490    -0.04900
C2058       C  0.73708210  0.54847089  0.87766229    -0.32300
C2059       C  0.70255058  0.56334603  0.85856775     0.37000
C2060       C  0.72331581  0.58729219  0.84302565    -0.05200
C2061       C  0.78119529  0.59257641  0.84515757    -0.32200
C2062       C  0.81551366  0.57755375  0.86368338     0.36900
H2063       H  0.71893318  0.53129130  0.88987180     0.17200
O2064       O  0.64776976  0.55496058  0.85622371    -0.59700
H2065       H  0.80062241  0.61017310  0.83414503     0.17200
O2066       O  0.87051955  0.58576058  0.86515375    -0.59800
H2067       H  0.88866649  0.57464871  0.84721158     0.44200
H2068       H  0.63163715  0.55840366  0.87679963     0.44200
C2069       C  0.65111126  0.62382775  0.86242509    -0.04900
C2070       C  0.67779589  0.63995577  0.88700891    -0.32300
C2071       C  0.64637832  0.66054570  0.90676251     0.37000
C2072       C  0.58815086  0.66133832  0.90404669    -0.05200
C2073       C  0.56270817  0.63646399  0.88819493    -0.32200
C2074       C  0.59320118  0.61792851  0.86701830     0.36900
H2075       H  0.72282743  0.64111064  0.88741456     0.17200
O2076       O  0.67258655  0.68134105  0.92648633    -0.59700
H2077       H  0.51787782  0.63393139  0.88848940     0.17200
O2078       O  0.56566501  0.59469100  0.85081218    -0.59800
H2079       H  0.53418167  0.60373900  0.84103599     0.44200
H2080       H  0.69355561  0.69457832  0.91407341     0.44200
C2081       C  0.76639331  0.94622407  0.54449770    -0.04900
C2082       C  0.76591060  0.95895968  0.57465508    -0.32300
C2083       C  0.73979326  0.94451938  0.59772843     0.37000
C2084       C  0.71248449  0.91642843  0.59134730    -0.05200
C2085       C  0.71209526  0.90441540  0.56066952    -0.32200
C2086       C  0.73790492  0.91895854  0.53779192     0.36900
H2087       H  0.78925102  0.97938721  0.58074312     0.17200
O2088       O  0.74419637  0.95729581  0.62676965    -0.59700
H2089       H  0.69543614  0.88229551  0.55407485     0.17200
O2090       O  0.73982218  0.90465336  0.50920206    -0.59800
H2091       H  0.70145334  0.90613983  0.50177318     0.44200
H2092       H  0.78431268  0.95625604  0.63137371     0.44200
C2093       C  0.66153085  0.86806205  0.60477417    -0.04900
C2094       C  0.67214973  0.83921409  0.61360846    -0.32300
C2095       C  0.63406835  0.81587132  0.61019867     0.37000
C2096       C  0.58276266  0.82019739  0.59751054    -0.05200
C2097       C  0.57180844  0.84795924  0.58696021    -0.32200
C2098       C  0.60982939  0.87178007  0.59093692     0.36900
H2099       H  0.70659186  0.83480745  0.62709141     0.17200
O2100       O  0.64490693  0.79006414  0.62276569    -0.59700
H2101       H  0.53293098  0.85178365  0.57630716     0.17200
O2102       O  0.59397205  0.89936042  0.58359564    -0.59800
H2103       H  0.59185459  0.89708289  0.56147107     0.44200
H2104       H  0.67453130  0.77953034  0.60993495     0.44200
C2105       C  0.65796001  0.90985345  0.64378495    -0.04900
C2106       C  0.62252363  0.93491947  0.64224305    -0.32300
C2107       C  0.57587117  0.94123179  0.66232161     0.37000
C2108       C  0.56237642  0.92211036  0.68460618    -0.05200
C2109       C  0.59955228  0.89838703  0.68668275    -0.32200
C2110       C  0.64582525  0.89245257  0.66780137     0.36900
H2111       H  0.62831550  0.94860687  0.62415734     0.17200
O2112       O  0.54152617  0.96476282  0.65828313    -0.59700
H2113       H  0.59122914  0.88172076  0.70159699     0.17200
O2114       O  0.67753773  0.86801730  0.67248481    -0.59800
H2115       H  0.65200870  0.85058016  0.67257466     0.44200
H2116       H  0.56488862  0.98305288  0.66173745     0.44200
C2117       C  0.77249192  0.79824701  0.76405917    -0.04900
C2118       C  0.79293148  0.79491186  0.79279548    -0.32300
C2119       C  0.76870245  0.81088534  0.81905909     0.37000
C2120       C  0.72267753  0.83039056  0.81701991    -0.05200
C2121       C  0.71082990  0.83730743  0.78812301    -0.32200
C2122       C  0.73010071  0.82007815  0.76263920     0.36900
H2123       H  0.82446320  0.77818217  0.79514438     0.17200
O2124       O  0.78695518  0.80519154  0.84650417    -0.59700
H2125       H  0.68205759  0.85487893  0.78433205     0.17200
O2126       O  0.70138247  0.82270484  0.73696165    -0.59800
H2127       H  0.70898356  0.84327960  0.73179235     0.44200
H2128       H  0.81314798  0.82174089  0.85277186     0.44200
C2129       C  0.73342904  0.68025017  0.77377388    -0.04900
C2130       C  0.72006680  0.68924204  0.80400913    -0.32300
C2131       C  0.71290253  0.66905613  0.82525620     0.37000
C2132       C  0.71778016  0.63742723  0.81719691    -0.05200
C2133       C  0.74016383  0.62884729  0.78786703    -0.32200
C2134       C  0.74655057  0.64943785  0.76628616     0.36900
H2135       H  0.71138010  0.71238819  0.81173928     0.17200
O2136       O  0.69661035  0.68149480  0.85305345    -0.59700
H2137       H  0.74642249  0.60521324  0.78046002     0.17200
O2138       O  0.76323859  0.63857837  0.73783993    -0.59800
H2139       H  0.80432435  0.63686209  0.73859558     0.44200
H2140       H  0.65578265  0.68414661  0.85191755     0.44200
C2141       C  0.80994194  0.84127109  0.65417392    -0.04900
C2142       C  0.80122483  0.87002093  0.67014081    -0.32300
C2143       C  0.77489331  0.89268717  0.65654551     0.37000
C2144       C  0.75519268  0.88568289  0.62724738    -0.05200
C2145       C  0.78545841  0.86314128  0.60904724    -0.32200
C2146       C  0.81087924  0.83982684  0.62258497     0.36900
H2147       H  0.80715989  0.87406430  0.69396746     0.17200
O2148       O  0.75973614  0.91880635  0.67369260    -0.59700
H2149       H  0.77840829  0.85956851  0.58521975     0.17200
O2150       O  0.83013465  0.81474471  0.60506611    -0.59800
H2151       H  0.79733577  0.80587014  0.59424970     0.44200
H2152       H  0.79492156  0.93006858  0.67752946     0.44200
C2153       C  0.15936560  0.57142126  0.91348042    -0.04900
C2154       C  0.17678833  0.59748591  0.93120867    -0.32300
C2155       C  0.20475921  0.62093274  0.91849094     0.37000
C2156       C  0.21729887  0.61875838  0.88719230    -0.05200
C2157       C  0.20197422  0.59127556  0.87029886    -0.32200
C2158       C  0.17389484  0.56820926  0.88300884     0.36900
H2159       H  0.16518478  0.60069458  0.95474600     0.17200
O2160       O  0.21705921  0.64650260  0.93694104    -0.59700
H2161       H  0.20834623  0.58749361  0.84645640     0.17200
O2162       O  0.15713129  0.54328736  0.86479272    -0.59800
H2163       H  0.18902467  0.52917355  0.86389589     0.44200
H2164       H  0.18336041  0.65927296  0.93721260     0.44200
C2165       C  0.27585981  0.66845623  0.89082383    -0.04900
C2166       C  0.27186082  0.70013917  0.89769826    -0.32300
C2167       C  0.31962320  0.71887479  0.90031120     0.37000
C2168       C  0.37341409  0.70662988  0.89423772    -0.05200
C2169       C  0.37710684  0.67501855  0.89111885    -0.32200
C2170       C  0.33012256  0.65654178  0.89330767     0.36900
H2171       H  0.23316487  0.71169085  0.89897105     0.17200
O2172       O  0.31324995  0.74926526  0.90820954    -0.59700
H2173       H  0.41579764  0.66369997  0.88505815     0.17200
O2174       O  0.33733717  0.62610084  0.89357792    -0.59800
H2175       H  0.36613883  0.61940160  0.87814841     0.44200
H2176       H  0.28518912  0.75625554  0.89469921     0.44200
C2177       C  0.77826889  0.58370800  0.53250974    -0.04900
C2178       C  0.73731090  0.59920311  0.51872905    -0.32300
C2179       C  0.70775904  0.62354048  0.53465245     0.37000
C2180       C  0.71977897  0.63348570  0.56528322    -0.05200
C2181       C  0.76135222  0.61722722  0.57834083    -0.32200
C2182       C  0.78915833  0.59280663  0.56282023     0.36900
H2183       H  0.72843368  0.59266954  0.49537797     0.17200
O2184       O  0.66521458  0.63570859  0.52023129    -0.59700
H2185       H  0.77018096  0.62220807  0.60185793     0.17200
O2186       O  0.82577428  0.57698779  0.57805915    -0.59800
H2187       H  0.85738961  0.59081860  0.58302162     0.44200
H2188       H  0.68339070  0.64644076  0.50457923     0.44200
C2189       C  0.53929838  0.70464960  0.55479742    -0.04900
C2190       C  0.59375461  0.70785989  0.54307886    -0.32300
C2191       C  0.63937270  0.69137255  0.55239048     0.37000
C2192       C  0.63141673  0.66913635  0.57217155    -0.05200
C2193       C  0.57576533  0.66491653  0.58195921    -0.32200
C2194       C  0.53196522  0.68311965  0.57512659     0.36900
H2195       H  0.60228174  0.72537777  0.52899533     0.17200
O2196       O  0.69214110  0.69816095  0.54309172    -0.59700
H2197       H  0.56553550  0.65075580  0.59899044     0.17200
O2198       O  0.48350433  0.68166164  0.59153036    -0.59800
H2199       H  0.48830239  0.69607790  0.60974288     0.44200
H2200       H  0.70237433  0.71689004  0.55574640     0.44200
C2201       C  0.71364302  0.68165780  0.60591122    -0.04900
C2202       C  0.77267994  0.68323934  0.60856141    -0.32300
C2203       C  0.79823468  0.69977427  0.63367445     0.37000
C2204       C  0.76546477  0.71736721  0.65543557    -0.05200
C2205       C  0.70858023  0.72006801  0.64930212    -0.32200
C2206       C  0.68273519  0.70262662  0.62597700     0.36900
H2207       H  0.79953174  0.67023462  0.59250309     0.17200
O2208       O  0.85473480  0.69850114  0.63629678    -0.59700
H2209       H  0.68213078  0.73476310  0.66433345     0.17200
O2210       O  0.62581402  0.70391490  0.62574605    -0.59800
H2211       H  0.61699412  0.72292995  0.61760788     0.44200
H2212       H  0.86224762  0.67849995  0.64273703     0.44200
C2213       C  0.63883258  0.60469929  0.80839875    -0.04900
C2214       C  0.60560957  0.62935457  0.80245208    -0.32300
C2215       C  0.56462531  0.62738119  0.78116805     0.37000
C2216       C  0.54887981  0.59912649  0.76665363    -0.05200
C2217       C  0.58449909  0.57452227  0.77030575    -0.32200
C2218       C  0.62941261  0.57718064  0.79060407     0.36900
H2219       H  0.61197002  0.65131270  0.81447942     0.17200
O2220       O  0.54493935  0.65382794  0.77263384    -0.59700
H2221       H  0.57905186  0.55337092  0.75653060     0.17200
O2222       O  0.66364408  0.55307572  0.79226662    -0.59800
H2223       H  0.69159173  0.55389205  0.77587074     0.44200
H2224       H  0.52999652  0.66575321  0.79102478     0.44200
C2225       C  0.33867886  0.64038027  0.79066469    -0.04900
C2226       C  0.31200985  0.66692326  0.80060477    -0.32300
C2227       C  0.27693628  0.66884385  0.82563180     0.37000
C2228       C  0.26754636  0.64323924  0.84157108    -0.05200
C2229       C  0.29567754  0.61640449  0.83089846    -0.32200
C2230       C  0.32993437  0.61476599  0.80535948     0.36900
H2231       H  0.32074286  0.68677284  0.78967207     0.17200
O2232       O  0.25653500  0.69673704  0.83632933    -0.59700
H2233       H  0.29549594  0.59719575  0.84322072     0.17200
O2234       O  0.35619261  0.58825701  0.79530033    -0.59800
H2235       H  0.38940007  0.58754105  0.80794116     0.44200
H2236       H  0.24300037  0.70619571  0.81896809     0.44200
C2237       C  0.66031898  0.63273320  0.60969096    -0.04900
C2238       C  0.62817840  0.60754730  0.59820934    -0.32300
C2239       C  0.59951287  0.59013384  0.61730167     0.37000
C2240       C  0.60333617  0.59732044  0.64835530    -0.05200
C2241       C  0.64347256  0.61808713  0.65945941    -0.32200
C2242       C  0.67344459  0.63468980  0.64061357     0.36900
H2243       H  0.62150991  0.60301379  0.57439172     0.17200
O2244       O  0.56556148  0.56737578  0.60545517    -0.59700
H2245       H  0.65032461  0.62295772  0.68318648     0.17200
O2246       O  0.71546345  0.65216041  0.65323887    -0.59800
H2247       H  0.74716207  0.63830262  0.65473153     0.44200
H2248       H  0.58594567  0.54860433  0.60781872     0.44200
C2249       C  0.20844870  0.89127402  0.83719057    -0.04900
C2250       C  0.20956713  0.88472119  0.86731214    -0.32300
C2251       C  0.18222248  0.90308949  0.89089863     0.37000
C2252       C  0.15249263  0.92881942  0.88517693    -0.05200
C2253       C  0.15156687  0.93567618  0.85558371    -0.32200
C2254       C  0.17852416  0.91748619  0.83198938     0.36900
H2255       H  0.22864955  0.86423189  0.87263691     0.17200
O2256       O  0.18061772  0.89407430  0.91897661    -0.59700
H2257       H  0.12718164  0.95464875  0.85037725     0.17200
O2258       O  0.17245970  0.92471268  0.80346423    -0.59800
H2259       H  0.19337983  0.94369853  0.80260154     0.44200
H2260       H  0.20984925  0.90601905  0.93014641     0.44200
C2261       C  0.27332050  0.84482419  0.81917181    -0.04900
C2262       C  0.31923766  0.85494983  0.83696334    -0.32300
C2263       C  0.36232555  0.83545076  0.84330572     0.37000
C2264       C  0.36092578  0.80490458  0.83164327    -0.05200
C2265       C  0.31799847  0.79503150  0.81272712    -0.32200
C2266       C  0.27526518  0.81412679  0.80611834     0.36900
H2267       H  0.32184387  0.87831007  0.84611405     0.17200
O2268       O  0.40413666  0.84628142  0.86185524    -0.59700
H2269       H  0.31764439  0.77183947  0.80273145     0.17200
O2270       O  0.23810084  0.80244057  0.78521615    -0.59800
H2271       H  0.22156940  0.78467571  0.79322440     0.44200
H2272       H  0.42844573  0.85812940  0.84954775     0.44200
C2273       C  0.26539451  0.88433217  0.78650242    -0.04900
C2274       C  0.29641596  0.91039188  0.79618135    -0.32300
C2275       C  0.33923702  0.92139617  0.77859800     0.37000
C2276       C  0.35141557  0.90746685  0.74931129    -0.05200
C2277       C  0.32052876  0.88175246  0.73933850    -0.32200
C2278       C  0.28034583  0.86957625  0.75766298     0.36900
H2279       H  0.29130409  0.92114932  0.81883641     0.17200
O2280       O  0.37337642  0.94339682  0.79189255    -0.59700
H2281       H  0.33085758  0.86918025  0.71793106     0.17200
O2282       O  0.25786003  0.84233378  0.74736040    -0.59800
H2283       H  0.28956823  0.82808623  0.74404453     0.44200
H2284       H  0.34899453  0.96094147  0.79814076     0.44200
C2285       C  0.17565767  0.65910900  0.86098723    -0.04900
C2286       C  0.15277494  0.64344460  0.83477949    -0.32300
C2287       C  0.13246356  0.65907931  0.81228386     0.37000
C2288       C  0.13272172  0.69069723  0.81638522    -0.05200
C2289       C  0.13434931  0.70435368  0.84642103    -0.32200
C2290       C  0.15275868  0.68777089  0.86915099     0.36900
H2291       H  0.16008119  0.61994781  0.82851078     0.17200
O2292       O  0.11693901  0.64310230  0.78596366    -0.59700
H2293       H  0.12379986  0.72770991  0.85235523     0.17200
O2294       O  0.14329440  0.69830999  0.89861693    -0.59800
H2295       H  0.10541997  0.69120192  0.90342755     0.44200
H2296       H  0.07566380  0.64368246  0.78639047     0.44200
C2297       C  0.19268716  0.81038636  0.65505814    -0.04900
C2298       C  0.21730516  0.83825552  0.66343732    -0.32300
C2299       C  0.22640732  0.85939812  0.64346013     0.37000
C2300       C  0.21309115  0.85301792  0.61258761    -0.05200
C2301       C  0.18502814  0.82525661  0.60471111    -0.32200
C2302       C  0.17488152  0.80430756  0.62536941     0.36900
H2303       H  0.23263796  0.84365623  0.68585041     0.17200
O2304       O  0.25397974  0.88460796  0.65466276    -0.59700
H2305       H  0.17406994  0.81892171  0.58161469     0.17200
O2306       O  0.14690699  0.77830829  0.61625801    -0.59800
H2307       H  0.17450622  0.76531890  0.60431435     0.44200
H2308       H  0.29135781  0.87762099  0.65963534     0.44200
C2309       C  0.17591326  0.85227416  0.79837958    -0.04900
C2310       C  0.14926003  0.83201644  0.81601504    -0.32300
C2311       C  0.11485579  0.80912211  0.80244462     0.37000
C2312       C  0.10979919  0.80564817  0.77110978    -0.05200
C2313       C  0.11310067  0.83290314  0.75864142    -0.32200
C2314       C  0.14954231  0.85563202  0.77101667     0.36900
H2315       H  0.15867937  0.83221308  0.83943676     0.17200
O2316       O  0.07978145  0.79418176  0.81998647    -0.59700
H2317       H  0.09463688  0.83469295  0.73718211     0.17200
O2318       O  0.16130620  0.87939243  0.75534456    -0.59800
H2319       H  0.12675988  0.89157840  0.75653505     0.44200
H2320       H  0.04336791  0.80454486  0.81978688     0.44200
C2321       C  0.19158858  0.59966999  0.60675775    -0.04900
C2322       C  0.14718778  0.61212277  0.59208067    -0.32300
C2323       C  0.11820531  0.59610218  0.56873285     0.37000
C2324       C  0.13195288  0.56598339  0.55832284    -0.05200
C2325       C  0.17551848  0.55278594  0.57264449    -0.32200
C2326       C  0.20507809  0.56904604  0.59649331     0.36900
H2327       H  0.13666282  0.63560634  0.59760934     0.17200
O2328       O  0.07702005  0.61082715  0.55555768    -0.59700
H2329       H  0.18693111  0.52969836  0.56534746     0.17200
O2330       O  0.25013567  0.55541076  0.60737316    -0.59800
H2331       H  0.23516968  0.53768602  0.61616298     0.44200
H2332       H  0.09517086  0.61831138  0.53787990     0.44200
C2333       C  0.25273560  0.64167910  0.60107958    -0.04900
C2334       C  0.23409290  0.67128839  0.59986501    -0.32300
C2335       C  0.25960405  0.68988695  0.58110048     0.37000
C2336       C  0.30566859  0.67933944  0.56279911    -0.05200
C2337       C  0.31603560  0.64830752  0.55914144    -0.32200
C2338       C  0.28962899  0.62941325  0.57772507     0.36900
H2339       H  0.20015364  0.68083718  0.61397282     0.17200
O2340       O  0.24055774  0.71875431  0.58257676    -0.59700
H2341       H  0.34762342  0.63886202  0.54334213     0.17200
O2342       O  0.30329814  0.59947473  0.57441065    -0.59800
H2343       H  0.34339070  0.59842808  0.57907279     0.44200
H2344       H  0.21091944  0.71811693  0.56748691     0.44200
C2345       C  0.28149367  0.60896505  0.64146379    -0.04900
C2346       C  0.33558423  0.62152662  0.63921096    -0.32300
C2347       C  0.37879865  0.61589418  0.65801158     0.37000
C2348       C  0.37241667  0.59511647  0.67899896    -0.05200
C2349       C  0.31897676  0.58222077  0.68175399    -0.32200
C2350       C  0.27383964  0.58953961  0.66395196     0.36900
H2351       H  0.34411433  0.63912932  0.62535734     0.17200
O2352       O  0.42581339  0.63328508  0.65739359    -0.59700
H2353       H  0.31041319  0.56845279  0.69948818     0.17200
O2354       O  0.22119963  0.57994129  0.67057662    -0.59800
H2355       H  0.22289939  0.55769886  0.66823229     0.44200
H2356       H  0.41703702  0.65205915  0.67056005     0.44200
C2357       C  0.20140112  0.64453907  0.65174968    -0.04900
C2358       C  0.23548965  0.66675275  0.66720899    -0.32300
C2359       C  0.21439790  0.69017966  0.68741322     0.37000
C2360       C  0.15641013  0.69413391  0.69222373    -0.05200
C2361       C  0.12185592  0.67074630  0.67948441    -0.32200
C2362       C  0.14383806  0.64568790  0.66030974     0.36900
H2363       H  0.27976078  0.66706026  0.66277725     0.17200
O2364       O  0.25158823  0.70949944  0.70241961    -0.59700
H2365       H  0.07799852  0.67109368  0.68506477     0.17200
O2366       O  0.10929243  0.62197813  0.65172915    -0.59800
H2367       H  0.07695435  0.63049347  0.64221850     0.44200
H2368       H  0.26902284  0.72093296  0.68708708     0.44200
loop_ 
_geom_bond_atom_site_label_1 
_geom_bond_atom_site_label_2 
_geom_bond_distance 
_geom_bond_site_symmetry_2 
_ccdc_geom_bond_type 
C1          C545   1.575       .  S
C1          C557   1.561       .  S
C1          C569   1.578       .  S
C1          C581   1.594       .  S
C2            C4   1.541       .  S
C2            C6   1.543       .  S
C2            C5   1.552       .  S
C2          C584   1.560       .  S
C3            C7   1.552       .  S
C3            C9   1.551       .  S
C3            C8   1.526       .  S
C3          C536   1.571       .  S
C4           C12   1.395       .  A
C4            C7   1.394       .  A
C5           C16   1.387       .  A
C5            C8   1.410       .  A
C6           C20   1.380       .  A
C6            C9   1.410       .  A
C7           C10   1.376       .  A
C8           C14   1.355       .  A
C9           C17   1.387       .  A
C10          N11   1.352       .  A
C10          H23   1.069       .  S
N11          C12   1.360       .  A
N11         C521   1.453       .  S
C12          H13   1.081       .  S
C14          N15   1.352   1_455  A
C14          H24   1.081   1_455  S
N15          C16   1.364   1_655  A
N15          N64   1.408       .  S
C16          H22   1.080       .  S
C17          N18   1.351       .  A
C17          H19   1.069       .  S
N18          C20   1.358       .  A
N18         C512   1.455       .  S
C20          H21   1.077       .  S
C25         C473   1.581       .  S
C25         C485   1.578       .  S
C25         C497   1.578       .  S
C25         C533   1.563       .  S
C26          C28   1.534       .  S
C26          C30   1.536       .  S
C26          C29   1.543       .  S
C26         C572   1.546       .  S
C27          C31   1.541       .  S
C27          C33   1.515       .  S
C27          C32   1.529       .  S
C27         C440   1.554       .  S
C28          C36   1.384       .  A
C28          C31   1.418       .  A
C29          C40   1.369       .  A
C29          C32   1.424       .  A
C30          C44   1.379       .  A
C30          C33   1.380       .  A
C31          C34   1.382       .  A
C32          C38   1.359       .  A
C33          C41   1.362       .  A
C34          N35   1.340       .  A
C34          H47   1.084       .  S
N35          C36   1.340       .  A
N35         C449   1.422       .  S
C36          H37   1.083       .  S
C38        N1223   1.338       .  A
C38        H1232   1.080       .  S
N39        C1222   1.340       .  A
N39        C1224   1.348       .  A
N39        N1273   1.381       .  S
C40        N1223   1.347       .  A
C40        H1230   1.082       .  S
C41          N42   1.356       .  A
C41          H43   1.081       .  S
N42          C44   1.362       .  A
N42         C464   1.438       .  S
C44          H45   1.081       .  S
H46        C1224   1.082       .  S
H48        C1222   1.080       .  S
C49         C404   1.571       .  S
C49         C416   1.582       .  S
C49         C425   1.589       .  S
C49         C461   1.564       .  S
C50         C380   1.586       .  S
C50         C389   1.593       .  S
C50         C452   1.573       .  S
C50         C509   1.572       .  S
C51          C53   1.562       .  S
C51          C55   1.548       .  S
C51          C54   1.565       .  S
C51         C428   1.551       .  S
C52          C56   1.526       .  S
C52          C58   1.518       .  S
C52          C57   1.544       .  S
C52         C341   1.553       .  S
C53          C61   1.408       .  A
C53          C56   1.395       .  A
C54          C65   1.384       .  A
C54          C57   1.427       .  A
C55          C69   1.400       .  A
C55          C58   1.376       .  A
C56          C59   1.380       .  A
C57          C63   1.358       .  A
C58          C66   1.377       .  A
C59          N60   1.355       .  A
C59          H72   1.078       .  S
N60          C61   1.366       .  A
N60         C353   1.474       .  S
C61          H62   1.078       .  S
C63          N64   1.358       .  A
C63          H73   1.080       .  S
N64          C65   1.361       .  A
C65          H71   1.077       .  S
C66          N67   1.351       .  A
C66          H68   1.081       .  S
N67          C69   1.367       .  A
N67         C365   1.460       .  S
C69          H70   1.079       .  S
C74         C308   1.581       .  S
C74         C317   1.568       .  S
C74         C329   1.592       .  S
C74         C368   1.565       .  S
C75         C284   1.581       .  S
C75         C293   1.570       .  S
C75         C356   1.603       .  S
C75         C437   1.571       .  S
C76          C78   1.529       .  S
C76          C80   1.518       .  S
C76          C79   1.525       .  S
C76         C500   1.551       .  S
C77          C81   1.545       .  S
C77          C83   1.544       .  S
C77          C82   1.537       .  S
C77         C332   1.578       .  S
C78          C86   1.377       .  A
C78          C81   1.416       .  A
C79          C82   1.418       .  A
C79        C1274   1.358       .  A
C80          C94   1.378       .  A
C80          C83   1.407       .  A
C81          C84   1.386       .  A
C82        C1272   1.363       .  A
C83          C91   1.386       .  A
C84          N85   1.353       .  A
C84          H97   1.077       .  S
N85          C86   1.351       .  A
N85         C269   1.445       .  S
C86          H87   1.082       .  S
C88        C1266   1.365       .  A
C88          N89   1.353       .  A
C88          H98   1.080       .  S
N89          C90   1.339       .  A
N89        N1223   1.382   1_565  S
C90        C1263   1.357       .  A
C90          H96   1.082       .  S
C91          N92   1.345       .  A
C91          H93   1.083       .  S
N92          C94   1.339       .  A
N92         C260   1.417       .  S
C94          H95   1.082       .  S
C99         C233   1.569       .  S
C99         C245   1.569       .  S
C99         C272   1.561       .  S
C99         C524   1.587       .  S
C100        C209   1.568       .  S
C100        C224   1.572       .  S
C100        C257   1.566       .  S
C100        C344   1.581       .  S
C101        C103   1.539       .  S
C101        C105   1.542       .  S
C101        C104   1.545       .  S
C101        C413   1.546       .  S
C102        C106   1.539       .  S
C102        C108   1.508       .  S
C102        C107   1.525       .  S
C102        C248   1.543       .  S
C103        C111   1.385       .  A
C103        C106   1.416       .  A
C104        C107   1.411       .  A
C104        C707   1.372       .  A
C105        C119   1.379       .  A
C105        C108   1.378       .  A
C106        C109   1.378       .  A
C107        C705   1.354       .  A
C108        C116   1.360       .  A
C109        N110   1.341       .  A
C109        H122   1.080       .  S
N110        C111   1.347       .  A
N110        C320   1.436       .  S
C111        H112   1.080       .  S
C113        C699   1.354       .  A
C113        N114   1.338       .  A
C113        H123   1.080       .  S
N114        C115   1.355       .  A
N114        N137   1.383       .  S
C115        C696   1.371       .  A
C115        H121   1.082       .  S
C116        N117   1.356       .  A
C116        H118   1.076       .  S
N117        C119   1.366       .  A
N117        C560   1.446       .  S
C119        H120   1.081       .  S
C124        C126   1.540       .  S
C124        C128   1.535       .  S
C124        C127   1.533       .  S
C124        C221   1.548       .  S
C125        C129   1.539       .  S
C125        C131   1.549       .  S
C125        C130   1.532       .  S
C125        C392   1.563       .  S
C126        C134   1.386       .  A
C126        C129   1.393       .  A
C127        C138   1.370       .  A
C127        C130   1.425       .  A
C128        C142   1.391       .  A
C128        C131   1.416       .  A
C129        C132   1.382       .  A
C130        C136   1.369       .  A
C131        C139   1.382       .  A
C132        N133   1.354       .  A
C132        H145   1.081       .  S
N133        C134   1.358       .  A
N133        C296   1.446       .  S
C134        H135   1.080       .  S
C136        N137   1.343       .  A
C136        H146   1.083       .  S
N137        C138   1.332       .  A
C138        H144   1.082       .  S
C139        N140   1.352       .  A
C139        H141   1.079       .  S
N140        C142   1.354       .  A
N140        C488   1.449       .  S
C142        H143   1.081       .  S
O147       Zr159   2.399   1_455  S
O147        C149   1.280       .  A
O148      Zr1369   2.526   1_545  S
O148        C741   1.306       .  A
C149        O740   1.305       .  A
C149        C548   1.511       .  S
O150       Zr754   2.442       .  S
O150        C152   1.288       .  A
O151      Zr1370   2.524       .  S
O151        C744   1.307       .  A
C152        O743   1.306       .  A
C152        C305   1.507       .  S
O153       Zr754   2.442   1_455  S
O153        C155   1.290       .  A
O154       Zr185   2.481       .  S
O154        C747   1.298       .  A
C155        O746   1.299   1_554  A
C155        C236   1.511       .  S
O156       Zr159   2.391       .  S
O156        C158   1.279       .  A
O157       Zr186   2.491   1_545  S
O157        C750   1.299       .  A
C158        O749   1.300   1_554  A
C158        C401   1.489       .  S
Zr159       O160   2.434       .  S
Zr159       O161   2.435       .  S
Zr159       O166   2.348       .  S
Zr159      O1349   2.365   1_655  S
Zr159       O781   2.369   1_554  S
Zr159       O783   2.344   1_654  S
O160        H203   0.990       .  S
O161        H206   0.990   1_554  S
O161        H794   0.990       .  S
Zr162       O742   2.445       .  S
Zr162       O745   2.436   1_655  S
Zr162       O164   2.435       .  S
Zr162       O755   2.436       .  S
Zr162       O190   2.377   1_655  S
Zr162       O192   2.372       .  S
Zr162      O1942   2.372       .  S
Zr162       O757   2.368   1_655  S
O163       Zr754   2.436       .  S
O163        H204   0.990       .  S
O163        H207   0.990       .  S
O164        H197   0.990       .  S
O165      Zr1343   2.370   1_455  S
O165       Zr754   2.367   1_455  S
O165       Zr777   2.398   1_554  S
O166      Zr1938   2.371   1_545  S
O166       Zr778   2.402   1_554  S
O166       H1377   0.965       .  S
O167       Zr179   2.442       .  S
O167        C169   1.288       .  A
O168       Zr186   2.529   1_545  S
O168        C169   1.308       .  A
C169        C281   1.531       .  S
O170       Zr182   2.434   1_455  S
O170        C172   1.287       .  A
O171       Zr185   2.505       .  S
O171        C172   1.303       .  A
C172        C476   1.502       .  S
O173       Zr182   2.434       .  S
O173        C175   1.287       .  A
O174      Zr1370   2.473       .  S
O174        C175   1.297       .  A
C175        C212   1.484       .  S
O176       Zr179   2.443   1_455  S
O176        C178   1.289       .  A
O177      Zr1369   2.498   1_545  S
O177        C178   1.301       .  A
C178        C377   1.499       .  S
Zr179       O180   2.438       .  S
Zr179       O181   2.434       .  S
Zr179       O187   2.380   1_545  S
Zr179       O188   2.369   1_645  S
Zr179       O191   2.379   1_655  S
Zr179       O189   2.366       .  S
O180        H200   0.990       .  S
O180        H205   0.990       .  S
O181        H201   0.990       .  S
Zr182       O183   2.434       .  S
Zr182       O184   2.436       .  S
Zr182       O192   2.379       .  S
Zr182       O190   2.358   1_655  S
Zr182      O1372   2.373   1_655  S
Zr182      O1371   2.361       .  S
O183        H199   0.990       .  S
O184        H198   0.990       .  S
O184        H208   0.990       .  S
Zr185      O1332   2.528       .  S
Zr185      O1361   2.491       .  S
Zr185       O190   2.409       .  S
Zr185       O757   2.397       .  S
Zr185      O1372   2.406       .  S
Zr185      O1375   2.401       .  S
Zr186      O1335   2.526       .  S
Zr186      O1358   2.473       .  S
Zr186       O187   2.412       .  S
Zr186       O189   2.397   1_565  S
Zr186       O758   2.403   1_565  S
Zr186      O1376   2.408       .  S
O187      Zr1366   2.367       .  S
O187        H195   0.966       .  S
O188      Zr1366   2.374   1_455  S
O188      Zr1369   2.406       .  S
O189       Zr751   2.368       .  S
O190        H194   0.966       .  S
O191       Zr751   2.358   1_455  S
O191      Zr1369   2.403   1_545  S
O191        H196   0.965       .  S
O192      Zr1370   2.407       .  S
H193       O1350   0.965       .  S
H202        O753   0.990   1_455  S
C209        C210   1.417       .  A
C209        C214   1.428       .  A
C210        C211   1.407       .  A
C210        H215   1.080       .  S
C211        C212   1.404       .  A
C211        O216   1.370       .  S
C212        C213   1.398       .  A
C213        C214   1.406       .  A
C213        H217   1.084       .  S
C214        O218   1.373       .  S
O216        H220   0.991       .  S
O218        H219   0.992       .  S
C221        C222   1.408       .  A
C221        C226   1.409       .  A
C222        C223   1.404       .  A
C222        H227   1.081       .  S
C223        C224   1.426       .  A
C223        O228   1.375       .  S
C224        C225   1.415       .  A
C225        C226   1.409       .  A
C225        H229   1.077       .  S
C226        O230   1.370       .  S
O228        H232   0.993       .  S
O230        H231   0.988       .  S
C233        C234   1.423       .  A
C233        C238   1.426       .  A
C234        C235   1.417       .  A
C234        H239   1.082       .  S
C235        C236   1.411       .  A
C235        O240   1.371   1_554  S
C236        C237   1.406       .  A
C237        C238   1.401       .  A
C237        H241   1.083       .  S
C238        O242   1.370       .  S
O240        H244   0.992   1_556  S
O242        H243   0.992       .  S
C245        C246   1.414       .  A
C245        C250   1.414       .  A
C246        C247   1.376       .  A
C246        H251   1.073       .  S
C247        C248   1.403       .  A
C247        O252   1.377       .  S
C248        C249   1.423       .  A
C249        C250   1.423       .  A
C249        H253   1.082       .  S
C250        O254   1.369       .  S
O252        H256   0.993       .  S
O254        H847   0.991       .  S
H255        O846   0.992       .  S
C257        C258   1.417       .  A
C257        C262   1.434       .  A
C258        C259   1.402       .  A
C258        H263   1.079       .  S
C259        C260   1.400       .  A
C259        O264   1.371       .  S
C260        C261   1.381       .  A
C261        C262   1.380       .  A
C261        H265   1.084       .  S
C262        O266   1.371       .  S
O264        H268   0.992       .  S
O266        H267   0.992       .  S
C269        C270   1.413       .  A
C269        C274   1.405       .  A
C270        C271   1.408       .  A
C270        H275   1.083       .  S
C271        C272   1.412       .  A
C271        O276   1.370       .  S
C272        C273   1.416       .  A
C273        C274   1.391       .  A
C273        H277   1.083       .  S
C274        O278   1.372       .  S
O276        H280   0.991       .  S
O278        H279   0.993       .  S
C281        C282   1.407       .  A
C281        C286   1.424       .  A
C282        C283   1.425       .  A
C282        H287   1.083       .  S
C283        C284   1.430       .  A
C283        O288   1.371       .  S
C284        C285   1.414       .  A
C285        C286   1.412       .  A
C285        H289   1.081       .  S
C286        O290   1.372       .  S
O288        H292   0.992       .  S
O290        H291   0.992       .  S
C293        C294   1.414       .  A
C293        C298   1.429       .  A
C294        C295   1.415       .  A
C294        H299   1.083       .  S
C295        C296   1.409       .  A
C295        O300   1.373       .  S
C296        C297   1.400       .  A
C297        C298   1.390       .  A
C297        H301   1.082       .  S
C298        O302   1.376       .  S
O300        H304   0.992       .  S
O302        H303   0.993       .  S
C305        C306   1.409       .  A
C305        C310   1.404       .  A
C306        C307   1.420       .  A
C306        H311   1.083       .  S
C307        C308   1.421       .  A
C307        O312   1.371       .  S
C308        C309   1.425       .  A
C309        C310   1.411       .  A
C309        H313   1.080       .  S
C310        O314   1.370       .  S
O312        H316   0.992       .  S
O314        H315   0.992   1_554  S
C317        C318   1.423       .  A
C317        C322   1.418       .  A
C318        C319   1.387       .  A
C318        H323   1.068       .  S
C319        C320   1.393       .  A
C319        O324   1.373       .  S
C320        C321   1.407       .  A
C321        C322   1.398       .  A
C321        H325   1.081       .  S
C322        O326   1.373       .  S
O324        H328   0.992       .  S
O326        H327   0.992       .  S
C329        C330   1.419       .  A
C329        C334   1.430       .  A
C330        C331   1.434       .  A
C330        H335   1.082       .  S
C331        C332   1.427       .  A
C331        O336   1.371       .  S
C332        C333   1.404       .  A
C333        C334   1.394       .  A
C333        H337   1.077       .  S
C334        O338   1.374       .  S
O336        H340   0.992       .  S
O338        H339   0.993       .  S
C341        C342   1.416       .  A
C341        C346   1.422       .  A
C342        C343   1.426       .  A
C342        H347   1.082       .  S
C343        C344   1.423       .  A
C343        O348   1.370       .  S
C344        C345   1.407       .  A
C345        C346   1.380       .  A
C345        H349   1.079       .  S
C346        O350   1.375       .  S
O348        H352   0.991       .  S
O350        H351   0.993       .  S
C353        C354   1.403       .  A
C353        C358   1.418       .  A
C354        C355   1.398       .  A
C354        H359   1.076       .  S
C355        C356   1.428       .  A
C355        O360   1.360       .  S
C356        C357   1.427       .  A
C357        C358   1.423       .  A
C357        H361   1.083       .  S
C358        O362   1.369       .  S
O360        H364   0.991       .  S
O362        H363   0.992       .  S
C365        C366   1.414       .  A
C365        C370   1.414       .  A
C366        C367   1.401       .  A
C366        H371   1.079       .  S
C367        C368   1.411       .  A
C367        O372   1.372       .  S
C368        C369   1.417       .  A
C369        C370   1.415       .  A
C369        H373   1.083       .  S
C370        O374   1.372       .  S
O372        H376   0.992       .  S
O374        H375   0.993       .  S
C377        C378   1.404       .  A
C377        C382   1.403       .  A
C378        C379   1.418       .  A
C378        H383   1.084       .  S
C379        C380   1.427       .  A
C379        O384   1.371       .  S
C380        C381   1.424       .  A
C381        C382   1.407       .  A
C381        H385   1.075       .  S
C382        O386   1.372       .  S
O384        H388   0.992       .  S
O386        H387   0.992       .  S
C389        C390   1.419       .  A
C389        C394   1.421       .  A
C390        C391   1.415       .  A
C390        H395   1.059       .  S
C391        C392   1.413       .  A
C391        O396   1.376       .  S
C392        C393   1.411       .  A
C393        C394   1.410       .  A
C393        H397   1.075       .  S
C394        O398   1.377       .  S
O396        H400   0.992       .  S
O398        H399   0.992       .  S
C401        C402   1.399       .  A
C401        C406   1.409       .  A
C402        C403   1.415       .  A
C402        H407   1.083   1_554  S
C403        C404   1.434       .  A
C403        O408   1.370       .  S
C404        C405   1.413       .  A
C405        C406   1.392       .  A
C405        H409   1.082       .  S
C406        O410   1.374       .  S
O408        H412   0.992       .  S
O410        H411   0.992       .  S
C413        C414   1.415       .  A
C413        C418   1.412       .  A
C414        C415   1.419       .  A
C414        H419   1.081       .  S
C415        C416   1.421       .  A
C415        O420   1.372       .  S
C416        C417   1.419       .  A
C417        C418   1.392       .  A
C417        H421   1.077       .  S
C418        O422   1.372       .  S
O420        H424   0.992       .  S
O422        H423   0.992       .  S
C425        C426   1.428       .  A
C425        C430   1.425       .  A
C426        C427   1.427       .  A
C426        H431   1.078       .  S
C427        C428   1.412       .  A
C427        O432   1.366       .  S
C428        C429   1.406       .  A
C429        C430   1.390       .  A
C429        H433   1.085       .  S
C430        O434   1.367       .  S
O432        H436   0.992       .  S
O434        H435   0.991       .  S
C437        C438   1.416       .  A
C437        C442   1.413       .  A
C438        C439   1.383       .  A
C438        H443   1.078       .  S
C439        C440   1.409       .  A
C439        O444   1.375       .  S
C440        C441   1.424       .  A
C441        C442   1.424       .  A
C441        H445   1.082       .  S
C442        O446   1.370       .  S
O444        H448   0.993       .  S
O446        H447   0.992       .  S
C449        C450   1.378       .  A
C449        C454   1.404       .  A
C450        C451   1.392       .  A
C450        H455   1.084       .  S
C451        C452   1.439       .  A
C451        O456   1.375       .  S
C452        C453   1.412       .  A
C453        C454   1.398       .  A
C453        H457   1.077       .  S
C454        O458   1.372       .  S
O456        H460   0.992       .  S
O458        H459   0.992       .  S
C461        C462   1.420       .  A
C461        C466   1.423       .  A
C462        C463   1.397       .  A
C462        H467   1.083       .  S
C463        C464   1.403       .  A
C463        O468   1.371       .  S
C464        C465   1.401       .  A
C465        C466   1.386       .  A
C465        H469   1.081       .  S
C466        O470   1.368       .  S
O468        H472   0.992       .  S
O470        H471   0.992       .  S
C473        C474   1.421       .  A
C473        C478   1.423       .  A
C474        C475   1.420       .  A
C474        H479   1.081       .  S
C475        C476   1.410       .  A
C475        O480   1.371       .  S
C476        C477   1.402       .  A
C477        C478   1.409       .  A
C477        H481   1.084       .  S
C478        O482   1.371       .  S
O480        H484   0.991       .  S
O482        H483   0.992       .  S
C485        C486   1.417       .  A
C485        C490   1.435       .  A
C486        C487   1.410       .  A
C486        H491   1.082       .  S
C487        C488   1.411       .  A
C487        O492   1.370       .  S
C488        C489   1.393       .  A
C489        C490   1.399       .  A
C489        H493   1.084       .  S
C490        O494   1.371       .  S
O492        H496   0.992       .  S
O494        H495   0.992       .  S
C497        C498   1.415       .  A
C497        C502   1.426       .  A
C498        C499   1.411       .  A
C498        H503   1.081       .  S
C499        C500   1.419       .  A
C499        O504   1.372       .  S
C500        C501   1.404       .  A
C501        C502   1.408       .  A
C501        H505   1.083       .  S
C502        O506   1.369       .  S
O504        H508   0.992       .  S
O506        H507   0.992       .  S
C509        C510   1.419       .  A
C509        C514   1.408       .  A
C510        C511   1.393       .  A
C510        H515   1.072       .  S
C511        C512   1.408       .  A
C511        O516   1.369       .  S
C512        C513   1.417       .  A
C513        C514   1.409       .  A
C513        H517   1.080       .  S
C514        O518   1.372       .  S
O516        H520   0.992       .  S
O518        H519   0.992       .  S
C521        C522   1.395       .  A
C521        C526   1.407       .  A
C522        C523   1.391       .  A
C522        H527   1.082       .  S
C523        C524   1.430       .  A
C523        O528   1.363       .  S
C524        C525   1.426       .  A
C525        C526   1.414       .  A
C525        H529   1.083       .  S
C526        O530   1.370       .  S
O528        H532   0.991       .  S
O530        H531   0.991       .  S
C533        C534   1.419       .  A
C533        C538   1.419       .  A
C534        C535   1.410       .  A
C534        H539   1.082       .  S
C535        C536   1.410       .  A
C535        O540   1.370       .  S
C536        C537   1.403       .  A
C537        C538   1.411       .  A
C537        H541   1.082       .  S
C538        O542   1.370       .  S
O540        H544   0.992       .  S
O542        H543   0.992       .  S
C545        C546   1.412       .  A
C545        C550   1.434       .  A
C546        C547   1.397       .  A
C546        H551   1.082       .  S
C547        C548   1.416       .  A
C547        O552   1.373       .  S
C548        C549   1.406       .  A
C549        C550   1.425       .  A
C549        H553   1.083       .  S
C550        O554   1.371       .  S
O552        H556   0.992       .  S
O554        H555   0.992       .  S
C557        C558   1.409       .  A
C557        C562   1.424       .  A
C558        C559   1.386       .  A
C558        H563   1.081       .  S
C559        C560   1.414       .  A
C559        O564   1.367       .  S
C560        C561   1.402       .  A
C561        C562   1.399       .  A
C561        H565   1.082       .  S
C562        O566   1.373       .  S
O564        H568   0.992       .  S
O566        H567   0.992       .  S
C569        C570   1.420       .  A
C569        C574   1.418       .  A
C570        C571   1.392       .  A
C570        H575   1.078       .  S
C571        C572   1.408       .  A
C571        O576   1.373       .  S
C572        C573   1.417       .  A
C573        C574   1.420       .  A
C573        H577   1.081       .  S
C574        O578   1.372       .  S
O576        H580   0.992       .  S
O578        H579   0.991       .  S
C581        C582   1.416       .  A
C581        C586   1.427       .  A
C582        C583   1.398       .  A
C582        H587   1.079       .  S
C583        C584   1.414       .  A
C583        O588   1.374       .  S
C584        C585   1.414       .  A
C585        C586   1.433       .  A
C585        H589   1.079       .  S
C586        O590   1.373       .  S
O588        H592   0.992       .  S
O590        H591   0.992       .  S
C593       C1137   1.576       .  S
C593       C1149   1.564       .  S
C593       C1161   1.579       .  S
C593       C1173   1.587       .  S
C594        C596   1.540       .  S
C594        C598   1.541       .  S
C594        C597   1.549       .  S
C594       C1176   1.556       .  S
C595        C599   1.552       .  S
C595        C601   1.554       .  S
C595        C600   1.533       .  S
C595       C1128   1.572       .  S
C596        C604   1.394       .  A
C596        C599   1.393       .  A
C597        C608   1.387       .  A
C597        C600   1.410       .  A
C598        C612   1.380       .  A
C598        C601   1.407       .  A
C599        C602   1.376       .  A
C600        C606   1.356       .  A
C601        C609   1.389       .  A
C602        N603   1.351       .  A
C602        H615   1.067       .  S
N603        C604   1.359       .  A
N603       C1113   1.454       .  S
C604        H605   1.081       .  S
C606        N607   1.356   1_455  A
C606        H616   1.081   1_455  S
N607        C608   1.364   1_655  A
N607        N656   1.410       .  S
C608        H614   1.080       .  S
C609        N610   1.353       .  A
C609        H611   1.068       .  S
N610        C612   1.359       .  A
N610       C1104   1.458       .  S
C612        H613   1.076       .  S
C617       C1065   1.584       .  S
C617       C1077   1.579       .  S
C617       C1089   1.580       .  S
C617       C1125   1.565       .  S
C618        C620   1.532       .  S
C618        C622   1.536       .  S
C618        C621   1.542       .  S
C618       C1164   1.548       .  S
C619        C623   1.540       .  S
C619        C625   1.514       .  S
C619        C624   1.533       .  S
C619       C1032   1.559       .  S
C620        C628   1.384       .  A
C620        C623   1.419       .  A
C621        C632   1.368       .  A
C621        C624   1.427       .  A
C622        C636   1.377       .  A
C622        C625   1.381       .  A
C623        C626   1.379       .  A
C624        C630   1.359       .  A
C625        C633   1.362       .  A
C626        N627   1.338       .  A
C626        H639   1.084       .  S
N627        C628   1.341       .  A
N627       C1041   1.420       .  S
C628        H629   1.083       .  S
C630       N1815   1.339       .  A
C630       H1824   1.080       .  S
N631       C1814   1.341       .  A
N631       C1816   1.346       .  A
N631       N1865   1.385       .  S
C632       N1815   1.346       .  A
C632       H1822   1.082       .  S
C633        N634   1.357       .  A
C633        H635   1.081       .  S
N634        C636   1.362       .  A
N634       C1056   1.439       .  S
C636        H637   1.080       .  S
H638       C1816   1.082       .  S
H640       C1814   1.079       .  S
C641        C996   1.571       .  S
C641       C1008   1.585       .  S
C641       C1017   1.585       .  S
C641       C1053   1.566       .  S
C642        C972   1.581       .  S
C642        C981   1.586       .  S
C642       C1044   1.568       .  S
C642       C1101   1.569       .  S
C643        C645   1.562       .  S
C643        C647   1.549       .  S
C643        C646   1.569       .  S
C643       C1020   1.553       .  S
C644        C648   1.527       .  S
C644        C650   1.516       .  S
C644        C649   1.541       .  S
C644        C933   1.558       .  S
C645        C653   1.408       .  A
C645        C648   1.396       .  A
C646        C657   1.388       .  A
C646        C649   1.427       .  A
C647        C661   1.402       .  A
C647        C650   1.381       .  A
C648        C651   1.381       .  A
C649        C655   1.354       .  A
C650        C658   1.378       .  A
C651        N652   1.357       .  A
C651        H664   1.077       .  S
N652        C653   1.365       .  A
N652        C945   1.474       .  S
C653        H654   1.079       .  S
C655        N656   1.356       .  A
C655        H665   1.080       .  S
N656        C657   1.365       .  A
C657        H663   1.079       .  S
C658        N659   1.347       .  A
C658        H660   1.080       .  S
N659        C661   1.366       .  A
N659        C957   1.459       .  S
C661        H662   1.079       .  S
C666        C900   1.580       .  S
C666        C909   1.567       .  S
C666        C921   1.592       .  S
C666        C960   1.564       .  S
C667        C876   1.583       .  S
C667        C885   1.567       .  S
C667        C948   1.604       .  S
C667       C1029   1.575       .  S
C668        C670   1.530       .  S
C668        C672   1.519       .  S
C668        C671   1.530       .  S
C668       C1092   1.554       .  S
C669        C673   1.544       .  S
C669        C675   1.541       .  S
C669        C674   1.537       .  S
C669        C924   1.574       .  S
C670        C678   1.374       .  A
C670        C673   1.421       .  A
C671       C1866   1.360       .  A
C671        C674   1.414       .  A
C672        C686   1.377       .  A
C672        C675   1.405       .  A
C673        C676   1.385       .  A
C674       C1864   1.365       .  A
C675        C683   1.383       .  A
C676        N677   1.349       .  A
C676        H689   1.078       .  S
N677        C678   1.349       .  A
N677        C861   1.440       .  S
C678        H679   1.081       .  S
C680       C1858   1.365       .  A
C680        N681   1.353       .  A
C680        H690   1.080       .  S
N681        C682   1.338       .  A
N681       N1815   1.382   1_565  S
C682       C1855   1.358       .  A
C682        H688   1.081       .  S
C683        N684   1.345       .  A
C683        H685   1.083       .  S
N684        C686   1.342       .  A
N684        C852   1.417       .  S
C686        H687   1.082       .  S
C691        C825   1.566       .  S
C691        C837   1.569       .  S
C691        C864   1.562       .  S
C691       C1116   1.585       .  S
C692        C801   1.571       .  S
C692        C816   1.572       .  S
C692        C849   1.568       .  S
C692        C936   1.579       .  S
C693        C695   1.544       .  S
C693        C697   1.542       .  S
C693        C696   1.544       .  S
C693       C1005   1.547       .  S
C694        C698   1.538       .  S
C694        C700   1.510       .  S
C694        C699   1.525       .  S
C694        C840   1.540       .  S
C695        C703   1.387       .  A
C695        C698   1.417       .  A
C696        C699   1.416       .  A
C697        C711   1.382       .  A
C697        C700   1.373       .  A
C698        C701   1.382       .  A
C700        C708   1.362       .  A
C701        N702   1.343       .  A
C701        H714   1.081       .  S
N702        C703   1.349       .  A
N702        C912   1.439       .  S
C703        H704   1.081       .  S
C705        N706   1.342   1_554  A
C705        H715   1.081       .  S
N706        C707   1.357   1_556  A
N706        N729   1.385       .  S
C707        H713   1.082   1_554  S
C708        N709   1.359       .  A
C708        H710   1.075       .  S
N709        C711   1.367       .  A
N709       C1152   1.451       .  S
C711        H712   1.080       .  S
C716        C718   1.540       .  S
C716        C720   1.535       .  S
C716        C719   1.534       .  S
C716        C813   1.544       .  S
C717        C721   1.544       .  S
C717        C723   1.550       .  S
C717        C722   1.529       .  S
C717        C984   1.561       .  S
C718        C726   1.386       .  A
C718        C721   1.400       .  A
C719        C730   1.376       .  A
C719        C722   1.423       .  A
C720        C734   1.392       .  A
C720        C723   1.411       .  A
C721        C724   1.385       .  A
C722        C728   1.369       .  A
C723        C731   1.384       .  A
C724        N725   1.353       .  A
C724        H737   1.080       .  S
N725        C726   1.356       .  A
N725        C888   1.446       .  S
C726        H727   1.081       .  S
C728        N729   1.341       .  A
C728        H738   1.083       .  S
N729        C730   1.334       .  A
C730        H736   1.082       .  S
C731        N732   1.352       .  A
C731        H733   1.079       .  S
N732        C734   1.355       .  A
N732       C1080   1.449       .  S
C734        H735   1.082       .  S
O739       Zr751   2.406   1_455  S
O739        C741   1.281       .  A
O740      Zr1961   2.522   1_544  S
C741       C1140   1.513       .  S
O742        C744   1.288       .  A
O743      Zr1962   2.519   1_554  S
C744        C897   1.509       .  S
O745        C747   1.289       .  A
O746       Zr777   2.485       .  S
C747        C828   1.505       .  S
O748       Zr751   2.402       .  S
O748        C750   1.281       .  A
O749       Zr778   2.492       .  S
C750        C993   1.496       .  S
Zr751       O752   2.436       .  S
Zr751       O753   2.436       .  S
Zr751      O1941   2.365   1_645  S
Zr751       O758   2.345       .  S
O752        H795   0.990       .  S
O753        H798   0.990       .  S
Zr754       O756   2.434       .  S
Zr754      O1350   2.376       .  S
Zr754       O782   2.378   1_654  S
Zr754       O784   2.374   1_554  S
O755        H796   0.990       .  S
O755        H799   0.990       .  S
O756        H789   0.990   1_554  S
O757      Zr1935   2.367   1_455  S
O758      Zr1346   2.379   1_545  S
O758       H1969   0.965       .  S
O759       Zr771   2.443       .  S
O759        C761   1.289       .  A
O760       Zr778   2.535       .  S
O760        C761   1.310       .  A
C761        C873   1.533       .  S
O762       Zr774   2.442   1_455  S
O762        C764   1.288       .  A
O763       Zr777   2.497       .  S
O763        C764   1.301       .  A
C764       C1068   1.501       .  S
O765       Zr774   2.433       .  S
O765        C767   1.286       .  A
O766      Zr1962   2.474       .  S
O766        C767   1.297       .  A
C767        C804   1.485       .  S
O768       Zr771   2.453   1_455  S
O768        C770   1.291       .  A
O769      Zr1961   2.487   1_545  S
O769        C770   1.299       .  A
C770        C969   1.494       .  S
Zr771       O772   2.435       .  S
Zr771       O773   2.435       .  S
Zr771       O779   2.380   1_545  S
Zr771       O780   2.371   1_645  S
Zr771       O783   2.378   1_655  S
Zr771       O781   2.369       .  S
O772        H792   0.990       .  S
O772        H797   0.990   1_655  S
O773        H793   0.990       .  S
Zr774       O775   2.434       .  S
Zr774       O776   2.436       .  S
Zr774      O1964   2.373   1_655  S
Zr774      O1963   2.358       .  S
Zr774       O784   2.378       .  S
Zr774       O782   2.360   1_655  S
O775        H791   0.990       .  S
O776        H790   0.990   1_655  S
O776        H800   0.990       .  S
Zr777      O1924   2.507   1_556  S
Zr777      O1953   2.482       .  S
Zr777      O1964   2.403       .  S
Zr777       O782   2.406       .  S
Zr777      O1967   2.406       .  S
Zr778      O1927   2.532   1_546  S
Zr778      O1950   2.487   1_545  S
Zr778       O779   2.410   1_545  S
Zr778       O781   2.404       .  S
Zr778      O1968   2.406   1_545  S
O779      Zr1958   2.359       .  S
O779        H787   0.965       .  S
O780      Zr1958   2.374   1_455  S
O780      Zr1961   2.406       .  S
O782        H786   0.965       .  S
O783      Zr1961   2.403   1_545  S
O783        H788   0.965       .  S
O784      Zr1962   2.405       .  S
H785       O1942   0.965       .  S
C801        C802   1.417       .  A
C801        C806   1.426       .  A
C802        C803   1.411       .  A
C802        H807   1.080       .  S
C803        C804   1.406       .  A
C803        O808   1.371       .  S
C804        C805   1.398       .  A
C805        C806   1.405       .  A
C805        H809   1.084       .  S
C806        O810   1.373       .  S
O808        H812   0.991       .  S
O810        H811   0.992       .  S
C813        C814   1.407       .  A
C813        C818   1.408       .  A
C814        C815   1.402       .  A
C814        H819   1.081       .  S
C815        C816   1.425       .  A
C815        O820   1.375       .  S
C816        C817   1.417       .  A
C817        C818   1.408       .  A
C817        H821   1.077       .  S
C818        O822   1.369       .  S
O820        H824   0.992       .  S
O822        H823   0.987       .  S
C825        C826   1.423       .  A
C825        C830   1.427       .  A
C826        C827   1.416       .  A
C826        H831   1.082       .  S
C827        C828   1.410       .  A
C827        O832   1.371       .  S
C828        C829   1.404       .  A
C829        C830   1.398       .  A
C829        H833   1.084       .  S
C830        O834   1.371       .  S
O832        H836   0.992       .  S
O834        H835   0.992       .  S
C837        C838   1.418       .  A
C837        C842   1.410       .  A
C838        C839   1.375       .  A
C838        H843   1.075       .  S
C839        C840   1.402       .  A
C839        O844   1.376       .  S
C840        C841   1.423       .  A
C841        C842   1.421       .  A
C841        H845   1.082       .  S
C842        O846   1.369       .  S
O844        H848   0.993       .  S
C849        C850   1.418       .  A
C849        C854   1.434       .  A
C850        C851   1.401       .  A
C850        H855   1.078       .  S
C851        C852   1.399       .  A
C851        O856   1.371       .  S
C852        C853   1.382       .  A
C853        C854   1.381       .  A
C853        H857   1.084       .  S
C854        O858   1.371       .  S
O856        H860   0.992       .  S
O858        H859   0.992       .  S
C861        C862   1.413       .  A
C861        C866   1.403       .  A
C862        C863   1.407       .  A
C862        H867   1.083       .  S
C863        C864   1.408       .  A
C863        O868   1.370       .  S
C864        C865   1.419       .  A
C865        C866   1.389       .  A
C865        H869   1.083       .  S
C866        O870   1.372       .  S
O868        H872   0.991       .  S
O870        H871   0.993       .  S
C873        C874   1.407       .  A
C873        C878   1.424       .  A
C874        C875   1.427       .  A
C874        H879   1.083       .  S
C875        C876   1.431       .  A
C875        O880   1.371       .  S
C876        C877   1.414       .  A
C877        C878   1.412       .  A
C877        H881   1.081       .  S
C878        O882   1.371       .  S
O880        H884   0.992       .  S
O882        H883   0.992       .  S
C885        C886   1.416       .  A
C885        C890   1.428       .  A
C886        C887   1.414       .  A
C886        H891   1.083       .  S
C887        C888   1.409       .  A
C887        O892   1.373       .  S
C888        C889   1.399       .  A
C889        C890   1.390       .  A
C889        H893   1.082       .  S
C890        O894   1.375       .  S
O892        H896   0.992       .  S
O894        H895   0.993       .  S
C897        C898   1.411       .  A
C897        C902   1.406       .  A
C898        C899   1.422       .  A
C898        H903   1.083       .  S
C899        C900   1.420       .  A
C899        O904   1.371       .  S
C900        C901   1.423       .  A
C901        C902   1.413       .  A
C901        H905   1.081       .  S
C902        O906   1.371       .  S
O904        H908   0.992       .  S
O906        H907   0.992       .  S
C909        C910   1.422       .  A
C909        C914   1.417       .  A
C910        C911   1.389       .  A
C910        H915   1.069       .  S
C911        C912   1.395       .  A
C911        O916   1.373       .  S
C912        C913   1.408       .  A
C913        C914   1.400       .  A
C913        H917   1.081       .  S
C914        O918   1.372       .  S
O916        H920   0.992       .  S
O918        H919   0.992       .  S
C921        C922   1.420       .  A
C921        C926   1.432       .  A
C922        C923   1.432       .  A
C922        H927   1.081       .  S
C923        C924   1.425       .  A
C923        O928   1.371       .  S
C924        C925   1.403       .  A
C925        C926   1.395       .  A
C925        H929   1.077       .  S
C926        O930   1.374       .  S
O928        H932   0.992       .  S
O930        H931   0.993       .  S
C933        C934   1.416       .  A
C933        C938   1.426       .  A
C934        C935   1.424       .  A
C934        H939   1.082       .  S
C935        C936   1.420       .  A
C935        O940   1.370       .  S
C936        C937   1.406       .  A
C937        C938   1.383       .  A
C937        H941   1.080       .  S
C938        O942   1.374       .  S
O940        H944   0.992       .  S
O942        H943   0.993       .  S
C945        C946   1.402       .  A
C945        C950   1.418       .  A
C946        C947   1.397       .  A
C946        H951   1.075       .  S
C947        C948   1.430       .  A
C947        O952   1.361       .  S
C948        C949   1.426       .  A
C949        C950   1.424       .  A
C949        H953   1.083       .  S
C950        O954   1.369       .  S
O952        H956   0.990       .  S
O954        H955   0.992       .  S
C957        C958   1.417       .  A
C957        C962   1.411       .  A
C958        C959   1.402       .  A
C958        H963   1.079       .  S
C959        C960   1.410       .  A
C959        O964   1.371       .  S
C960        C961   1.418       .  A
C961        C962   1.411       .  A
C961        H965   1.081       .  S
C962        O966   1.372       .  S
O964        H968   0.991       .  S
O966        H967   0.993       .  S
C969        C970   1.404       .  A
C969        C974   1.401       .  A
C970        C971   1.416       .  A
C970        H975   1.084       .  S
C971        C972   1.427       .  A
C971        O976   1.371       .  S
C972        C973   1.422       .  A
C973        C974   1.405       .  A
C973        H977   1.076       .  S
C974        O978   1.372       .  S
O976        H980   0.991       .  S
O978        H979   0.992       .  S
C981        C982   1.419       .  A
C981        C986   1.421       .  A
C982        C983   1.416       .  A
C982        H987   1.063       .  S
C983        C984   1.414       .  A
C983        O988   1.377       .  S
C984        C985   1.409       .  A
C985        C986   1.407       .  A
C985        H989   1.073       .  S
C986        O990   1.377       .  S
O988        H992   0.992       .  S
O990        H991   0.992       .  S
C993        C994   1.404       .  A
C993        C998   1.408       .  A
C994        C995   1.420       .  A
C994        H999   1.083       .  S
C995        C996   1.433       .  A
C995       O1000   1.370       .  S
C996        C997   1.412       .  A
C997        C998   1.390       .  A
C997       H1001   1.080       .  S
C998       O1002   1.374       .  S
O1000      H1004   0.992       .  S
O1002      H1003   0.992       .  S
C1005      C1006   1.415       .  A
C1005      C1010   1.411       .  A
C1006      C1007   1.423       .  A
C1006      H1011   1.082       .  S
C1007      C1008   1.422       .  A
C1007      O1012   1.372       .  S
C1008      C1009   1.418       .  A
C1009      C1010   1.391       .  A
C1009      H1013   1.075       .  S
C1010      O1014   1.372       .  S
O1012      H1016   0.992       .  S
O1014      H1015   0.992       .  S
C1017      C1018   1.428       .  A
C1017      C1022   1.423       .  A
C1018      C1019   1.428       .  A
C1018      H1023   1.079       .  S
C1019      C1020   1.412       .  A
C1019      O1024   1.367       .  S
C1020      C1021   1.408       .  A
C1021      C1022   1.390       .  A
C1021      H1025   1.085       .  S
C1022      O1026   1.369       .  S
O1024      H1028   0.992       .  S
O1026      H1027   0.992       .  S
C1029      C1030   1.416       .  A
C1029      C1034   1.415       .  A
C1030      C1031   1.384       .  A
C1030      H1035   1.076       .  S
C1031      C1032   1.409       .  A
C1031      O1036   1.376       .  S
C1032      C1033   1.424       .  A
C1033      C1034   1.426       .  A
C1033      H1037   1.081       .  S
C1034      O1038   1.369       .  S
O1036      H1040   0.993       .  S
O1038      H1039   0.991       .  S
C1041      C1042   1.376       .  A
C1041      C1046   1.405       .  A
C1042      C1043   1.389       .  A
C1042      H1047   1.084       .  S
C1043      C1044   1.439       .  A
C1043      O1048   1.375       .  S
C1044      C1045   1.410       .  A
C1045      C1046   1.398       .  A
C1045      H1049   1.078       .  S
C1046      O1050   1.372       .  S
O1048      H1052   0.992       .  S
O1050      H1051   0.992       .  S
C1053      C1054   1.419       .  A
C1053      C1058   1.424       .  A
C1054      C1055   1.399       .  A
C1054      H1059   1.083       .  S
C1055      C1056   1.407       .  A
C1055      O1060   1.371       .  S
C1056      C1057   1.401       .  A
C1057      C1058   1.386       .  A
C1057      H1061   1.080       .  S
C1058      O1062   1.370       .  S
O1060      H1064   0.992       .  S
O1062      H1063   0.992       .  S
C1065      C1066   1.421       .  A
C1065      C1070   1.426       .  A
C1066      C1067   1.418       .  A
C1066      H1071   1.081       .  S
C1067      C1068   1.409       .  A
C1067      O1072   1.371       .  S
C1068      C1069   1.402       .  A
C1069      C1070   1.411       .  A
C1069      H1073   1.084       .  S
C1070      O1074   1.371       .  S
O1072      H1076   0.991       .  S
O1074      H1075   0.992       .  S
C1077      C1078   1.418       .  A
C1077      C1082   1.437       .  A
C1078      C1079   1.411       .  A
C1078      H1083   1.082       .  S
C1079      C1080   1.410       .  A
C1079      O1084   1.371       .  S
C1080      C1081   1.394       .  A
C1081      C1082   1.403       .  A
C1081      H1085   1.084       .  S
C1082      O1086   1.373       .  S
O1084      H1088   0.992       .  S
O1086      H1087   0.992       .  S
C1089      C1090   1.415       .  A
C1089      C1094   1.427       .  A
C1090      C1091   1.411       .  A
C1090      H1095   1.081       .  S
C1091      C1092   1.417       .  A
C1091      O1096   1.372       .  S
C1092      C1093   1.406       .  A
C1093      C1094   1.411       .  A
C1093      H1097   1.083       .  S
C1094      O1098   1.369       .  S
O1096      H1100   0.992       .  S
O1098      H1099   0.992       .  S
C1101      C1102   1.418       .  A
C1101      C1106   1.406       .  A
C1102      C1103   1.392       .  A
C1102      H1107   1.073       .  S
C1103      C1104   1.409       .  A
C1103      O1108   1.369       .  S
C1104      C1105   1.420       .  A
C1105      C1106   1.411       .  A
C1105      H1109   1.080       .  S
C1106      O1110   1.371       .  S
O1108      H1112   0.992       .  S
O1110      H1111   0.992       .  S
C1113      C1114   1.398       .  A
C1113      C1118   1.409       .  A
C1114      C1115   1.391       .  A
C1114      H1119   1.081       .  S
C1115      C1116   1.424       .  A
C1115      O1120   1.358       .  S
C1116      C1117   1.426       .  A
C1117      C1118   1.413       .  A
C1117      H1121   1.083       .  S
C1118      O1122   1.370       .  S
O1120      H1124   0.989       .  S
O1122      H1123   0.992       .  S
C1125      C1126   1.419       .  A
C1125      C1130   1.419       .  A
C1126      C1127   1.408       .  A
C1126      H1131   1.082       .  S
C1127      C1128   1.408       .  A
C1127      O1132   1.370       .  S
C1128      C1129   1.405       .  A
C1129      C1130   1.414       .  A
C1129      H1133   1.082       .  S
C1130      O1134   1.370       .  S
O1132      H1136   0.992       .  S
O1134      H1135   0.992       .  S
C1137      C1138   1.413       .  A
C1137      C1142   1.432       .  A
C1138      C1139   1.399       .  A
C1138      H1143   1.082       .  S
C1139      C1140   1.415       .  A
C1139      O1144   1.372       .  S
C1140      C1141   1.406       .  A
C1141      C1142   1.426       .  A
C1141      H1145   1.083       .  S
C1142      O1146   1.370       .  S
O1144      H1148   0.992       .  S
O1146      H1147   0.992       .  S
C1149      C1150   1.411       .  A
C1149      C1154   1.422       .  A
C1150      C1151   1.389       .  A
C1150      H1155   1.082       .  S
C1151      C1152   1.415       .  A
C1151      O1156   1.368       .  S
C1152      C1153   1.406       .  A
C1153      C1154   1.403       .  A
C1153      H1157   1.081       .  S
C1154      O1158   1.373       .  S
O1156      H1160   0.992       .  S
O1158      H1159   0.992       .  S
C1161      C1162   1.419       .  A
C1161      C1166   1.419       .  A
C1162      C1163   1.393       .  A
C1162      H1167   1.078       .  S
C1163      C1164   1.408       .  A
C1163      O1168   1.373       .  S
C1164      C1165   1.416       .  A
C1165      C1166   1.421       .  A
C1165      H1169   1.081       .  S
C1166      O1170   1.373       .  S
O1168      H1172   0.992       .  S
O1170      H1171   0.991       .  S
C1173      C1174   1.414       .  A
C1173      C1178   1.425       .  A
C1174      C1175   1.395       .  A
C1174      H1179   1.079       .  S
C1175      C1176   1.414       .  A
C1175      O1180   1.375       .  S
C1176      C1177   1.414       .  A
C1177      C1178   1.431       .  A
C1177      H1181   1.080       .  S
C1178      O1182   1.372       .  S
O1180      H1184   0.992       .  S
O1182      H1183   0.992       .  S
C1185      C1729   1.575       .  S
C1185      C1741   1.560       .  S
C1185      C1753   1.580       .  S
C1185      C1765   1.592       .  S
C1186      C1188   1.542       .  S
C1186      C1190   1.544       .  S
C1186      C1189   1.553       .  S
C1186      C1768   1.559       .  S
C1187      C1191   1.551       .  S
C1187      C1193   1.553       .  S
C1187      C1192   1.528       .  S
C1187      C1720   1.571       .  S
C1188      C1196   1.396       .  A
C1188      C1191   1.391       .  A
C1189      C1200   1.388       .  A
C1189      C1192   1.411       .  A
C1190      C1204   1.380       .  A
C1190      C1193   1.409       .  A
C1191      C1194   1.375       .  A
C1192      C1198   1.356       .  A
C1193      C1201   1.389       .  A
C1194      N1195   1.351       .  A
C1194      H1207   1.068       .  S
N1195      C1196   1.361       .  A
N1195      C1705   1.454       .  S
C1196      H1197   1.081       .  S
C1198      N1199   1.352   1_455  A
C1198      H1208   1.081   1_455  S
N1199      C1200   1.364   1_655  A
N1199      N1248   1.408       .  S
C1200      H1206   1.080       .  S
C1201      N1202   1.353       .  A
C1201      H1203   1.068       .  S
N1202      C1204   1.358       .  A
N1202      C1696   1.457       .  S
C1204      H1205   1.077       .  S
C1209      C1657   1.584       .  S
C1209      C1669   1.577       .  S
C1209      C1681   1.578       .  S
C1209      C1717   1.565       .  S
C1210      C1212   1.533       .  S
C1210      C1214   1.534       .  S
C1210      C1213   1.544       .  S
C1210      C1756   1.548       .  S
C1211      C1215   1.542       .  S
C1211      C1217   1.513       .  S
C1211      C1216   1.527       .  S
C1211      C1624   1.558       .  S
C1212      C1220   1.384       .  A
C1212      C1215   1.420       .  A
C1213      C1224   1.368       .  A
C1213      C1216   1.423       .  A
C1214      C1228   1.377       .  A
C1214      C1217   1.382       .  A
C1215      C1218   1.383       .  A
C1216      C1222   1.356       .  A
C1217      C1225   1.360       .  A
C1218      N1219   1.341       .  A
C1218      H1231   1.084       .  S
N1219      C1220   1.340       .  A
N1219      C1633   1.422       .  S
C1220      H1221   1.083       .  S
C1225      N1226   1.356       .  A
C1225      H1227   1.082       .  S
N1226      C1228   1.361       .  A
N1226      C1648   1.435       .  S
C1228      H1229   1.081       .  S
C1233      C1588   1.572       .  S
C1233      C1600   1.584       .  S
C1233      C1609   1.584       .  S
C1233      C1645   1.563       .  S
C1234      C1564   1.582       .  S
C1234      C1573   1.590       .  S
C1234      C1636   1.573       .  S
C1234      C1693   1.571       .  S
C1235      C1237   1.564       .  S
C1235      C1239   1.550       .  S
C1235      C1238   1.562       .  S
C1235      C1612   1.548       .  S
C1236      C1240   1.523       .  S
C1236      C1242   1.515       .  S
C1236      C1241   1.545       .  S
C1236      C1525   1.551       .  S
C1237      C1245   1.410       .  A
C1237      C1240   1.396       .  A
C1238      C1249   1.384       .  A
C1238      C1241   1.425       .  A
C1239      C1253   1.402       .  A
C1239      C1242   1.378       .  A
C1240      C1243   1.377       .  A
C1241      C1247   1.358       .  A
C1242      C1250   1.375       .  A
C1243      N1244   1.353       .  A
C1243      H1256   1.078       .  S
N1244      C1245   1.366       .  A
N1244      C1537   1.470       .  S
C1245      H1246   1.079       .  S
C1247      N1248   1.358       .  A
C1247      H1257   1.080       .  S
N1248      C1249   1.361       .  A
C1249      H1255   1.077       .  S
C1250      N1251   1.350       .  A
C1250      H1252   1.080       .  S
N1251      C1253   1.367       .  A
N1251      C1549   1.461       .  S
C1253      H1254   1.079       .  S
C1258      C1492   1.587       .  S
C1258      C1501   1.569       .  S
C1258      C1513   1.594       .  S
C1258      C1552   1.566       .  S
C1259      C1468   1.584       .  S
C1259      C1477   1.565       .  S
C1259      C1540   1.600       .  S
C1259      C1621   1.576       .  S
C1260      C1262   1.529       .  S
C1260      C1264   1.519       .  S
C1260      C1263   1.524       .  S
C1260      C1684   1.553       .  S
C1261      C1265   1.544       .  S
C1261      C1267   1.544       .  S
C1261      C1266   1.539       .  S
C1261      C1516   1.576       .  S
C1262      C1270   1.375       .  A
C1262      C1265   1.417       .  A
C1263      C1266   1.415       .  A
C1264      C1278   1.377       .  A
C1264      C1267   1.409       .  A
C1265      C1268   1.387       .  A
C1267      C1275   1.384       .  A
C1268      N1269   1.352       .  A
C1268      H1281   1.079       .  S
N1269      C1270   1.350       .  A
N1269      C1453   1.443       .  S
C1270      H1271   1.081       .  S
C1272      N1273   1.351       .  A
C1272      H1282   1.080       .  S
N1273      C1274   1.338       .  A
C1274      H1280   1.082       .  S
C1275      N1276   1.345       .  A
C1275      H1277   1.083       .  S
N1276      C1278   1.341       .  A
N1276      C1444   1.417       .  S
C1278      H1279   1.083       .  S
C1283      C1417   1.566       .  S
C1283      C1429   1.566       .  S
C1283      C1456   1.565       .  S
C1283      C1708   1.587       .  S
C1284      C1393   1.570       .  S
C1284      C1408   1.574       .  S
C1284      C1441   1.567       .  S
C1284      C1528   1.580       .  S
C1285      C1287   1.543       .  S
C1285      C1289   1.543       .  S
C1285      C1288   1.541       .  S
C1285      C1597   1.546       .  S
C1286      C1290   1.537       .  S
C1286      C1292   1.506       .  S
C1286      C1291   1.521       .  S
C1286      C1432   1.536       .  S
C1287      C1295   1.386       .  A
C1287      C1290   1.417       .  A
C1288      C1891   1.368       .  A
C1288      C1291   1.410       .  A
C1289      C1303   1.380       .  A
C1289      C1292   1.377       .  A
C1290      C1293   1.379       .  A
C1291      C1889   1.351       .  A
C1292      C1300   1.360       .  A
C1293      N1294   1.341       .  A
C1293      H1306   1.081       .  S
N1294      C1295   1.350       .  A
N1294      C1504   1.439       .  S
C1295      H1296   1.080       .  S
C1297      C1883   1.353       .  A
C1297      N1298   1.338       .  A
C1297      H1307   1.080       .  S
N1298      C1299   1.354       .  A
N1298      N1321   1.382       .  S
C1299      C1880   1.372       .  A
C1299      H1305   1.082       .  S
C1300      N1301   1.355       .  A
C1300      H1302   1.077       .  S
N1301      C1303   1.366       .  A
N1301      C1744   1.444       .  S
C1303      H1304   1.081       .  S
C1308      C1310   1.542       .  S
C1308      C1312   1.536       .  S
C1308      C1311   1.531       .  S
C1308      C1405   1.549       .  S
C1309      C1313   1.537       .  S
C1309      C1315   1.547       .  S
C1309      C1314   1.531       .  S
C1309      C1576   1.561       .  S
C1310      C1318   1.386       .  A
C1310      C1313   1.397       .  A
C1311      C1322   1.371       .  A
C1311      C1314   1.426       .  A
C1312      C1326   1.391       .  A
C1312      C1315   1.414       .  A
C1313      C1316   1.382       .  A
C1314      C1320   1.371       .  A
C1315      C1323   1.382       .  A
C1316      N1317   1.352       .  A
C1316      H1329   1.081       .  S
N1317      C1318   1.357       .  A
N1317      C1480   1.445       .  S
C1318      H1319   1.080       .  S
C1320      N1321   1.342       .  A
C1320      H1330   1.083       .  S
N1321      C1322   1.331       .  A
C1322      H1328   1.082       .  S
C1323      N1324   1.352       .  A
C1323      H1325   1.080       .  S
N1324      C1326   1.355       .  A
N1324      C1672   1.448       .  S
C1326      H1327   1.082       .  S
O1331     Zr1343   2.405   1_455  S
O1331      C1333   1.282       .  A
O1332      C1925   1.306       .  A
C1333      O1924   1.302       .  A
C1333      C1732   1.503       .  S
O1334     Zr1938   2.447       .  S
O1334      C1336   1.289       .  A
O1335      C1928   1.307       .  A
C1336      O1927   1.309       .  A
C1336      C1489   1.513       .  S
O1337     Zr1938   2.439   1_455  S
O1337      C1339   1.290       .  A
O1338     Zr1369   2.484       .  S
O1338      C1931   1.300       .  A
C1339      O1930   1.299   1_554  A
C1339      C1420   1.505       .  S
O1340     Zr1343   2.398       .  S
O1340      C1342   1.280       .  A
O1341     Zr1370   2.493       .  S
O1341      C1934   1.300       .  A
C1342      O1933   1.298   1_554  A
C1342      C1585   1.488       .  S
Zr1343     O1344   2.434       .  S
Zr1343     O1345   2.438       .  S
Zr1343     O1350   2.351       .  S
Zr1343     O1965   2.368   1_554  S
Zr1343     O1967   2.349   1_654  S
O1344      H1387   0.990       .  S
O1345      H1978   0.990   1_655  S
O1345      H1390   0.990       .  S
Zr1346     O1926   2.446       .  S
Zr1346     O1929   2.443   1_655  S
Zr1346     O1939   2.437       .  S
Zr1346     O1348   2.436       .  S
Zr1346     O1941   2.372   1_655  S
Zr1346     O1374   2.375   1_655  S
Zr1346     O1376   2.371       .  S
O1347     Zr1938   2.437       .  S
O1347      H1388   0.990       .  S
O1347      H1391   0.990       .  S
O1348      H1381   0.990       .  S
O1349     Zr1938   2.369   1_445  S
O1349     Zr1961   2.397   1_544  S
O1350     Zr1962   2.403   1_554  S
O1351     Zr1363   2.446       .  S
O1351      C1353   1.288       .  A
O1352     Zr1370   2.530       .  S
O1352      C1353   1.308       .  A
C1353      C1465   1.533       .  S
O1354     Zr1366   2.432   1_455  S
O1354      C1356   1.286       .  A
O1355     Zr1369   2.511       .  S
O1355      C1356   1.304       .  A
C1356      C1660   1.504       .  S
O1357     Zr1366   2.430       .  S
O1357      C1359   1.286       .  A
O1358      C1359   1.297       .  A
C1359      C1396   1.484       .  S
O1360     Zr1363   2.446   1_455  S
O1360      C1362   1.290       .  A
O1361      C1362   1.300       .  A
C1362      C1561   1.496       .  S
Zr1363     O1364   2.435       .  S
Zr1363     O1365   2.436       .  S
Zr1363     O1371   2.378       .  S
Zr1363     O1372   2.373   1_655  S
Zr1363     O1375   2.377   1_655  S
Zr1363     O1373   2.367       .  S
O1364      H1384   0.990       .  S
O1364      H1389   0.990       .  S
O1365      H1385   0.990       .  S
Zr1366     O1367   2.434       .  S
Zr1366     O1368   2.439       .  S
Zr1366     O1376   2.375       .  S
Zr1366     O1374   2.359   1_655  S
O1367      H1383   0.990       .  S
O1368      H1382   0.990       .  S
O1368      H1392   0.990   1_655  S
Zr1369     O1941   2.399       .  S
Zr1369     O1374   2.408       .  S
Zr1370     O1942   2.401       .  S
Zr1370     O1371   2.409       .  S
Zr1370     O1373   2.398       .  S
O1371      H1379   0.966       .  S
O1373     Zr1935   2.367       .  S
O1374      H1378   0.965       .  S
O1375     Zr1935   2.352   1_455  S
O1375      H1380   0.965       .  S
H1386      O1937   0.989   1_455  S
C1393      C1394   1.416       .  A
C1393      C1398   1.428       .  A
C1394      C1395   1.410       .  A
C1394      H1399   1.080       .  S
C1395      C1396   1.405       .  A
C1395      O1400   1.370       .  S
C1396      C1397   1.398       .  A
C1397      C1398   1.405       .  A
C1397      H1401   1.084       .  S
C1398      O1402   1.373       .  S
O1400      H1404   0.991       .  S
O1402      H1403   0.992       .  S
C1405      C1406   1.409       .  A
C1405      C1410   1.407       .  A
C1406      C1407   1.405       .  A
C1406      H1411   1.081       .  S
C1407      C1408   1.427       .  A
C1407      O1412   1.375       .  S
C1408      C1409   1.416       .  A
C1409      C1410   1.408       .  A
C1409      H1413   1.076       .  S
C1410      O1414   1.368       .  S
O1412      H1416   0.992       .  S
O1414      H1415   0.986       .  S
C1417      C1418   1.421       .  A
C1417      C1422   1.427       .  A
C1418      C1419   1.415       .  A
C1418      H1423   1.082       .  S
C1419      C1420   1.410       .  A
C1419      O1424   1.371   1_554  S
C1420      C1421   1.404       .  A
C1421      C1422   1.399       .  A
C1421      H1425   1.084       .  S
C1422      O1426   1.371       .  S
O1424      H1428   0.992   1_556  S
O1426      H1427   0.992       .  S
C1429      C1430   1.416       .  A
C1429      C1434   1.413       .  A
C1430      C1431   1.372       .  A
C1430      H1435   1.075       .  S
C1431      C1432   1.400       .  A
C1431      O1436   1.377       .  S
C1432      C1433   1.422       .  A
C1433      C1434   1.420       .  A
C1433      H1437   1.081       .  S
C1434      O1438   1.369       .  S
O1436      H1440   0.993       .  S
O1438      H2031   0.991       .  S
H1439      O2030   0.991       .  S
C1441      C1442   1.417       .  A
C1441      C1446   1.435       .  A
C1442      C1443   1.401       .  A
C1442      H1447   1.078       .  S
C1443      C1444   1.400       .  A
C1443      O1448   1.371       .  S
C1444      C1445   1.381       .  A
C1445      C1446   1.379       .  A
C1445      H1449   1.084       .  S
C1446      O1450   1.370       .  S
O1448      H1452   0.992       .  S
O1450      H1451   0.992       .  S
C1453      C1454   1.413       .  A
C1453      C1458   1.404       .  A
C1454      C1455   1.408       .  A
C1454      H1459   1.083       .  S
C1455      C1456   1.409       .  A
C1455      O1460   1.369       .  S
C1456      C1457   1.420       .  A
C1457      C1458   1.392       .  A
C1457      H1461   1.083       .  S
C1458      O1462   1.372       .  S
O1460      H1464   0.991       .  S
O1462      H1463   0.993       .  S
C1465      C1466   1.408       .  A
C1465      C1470   1.423       .  A
C1466      C1467   1.427       .  A
C1466      H1471   1.083       .  S
C1467      C1468   1.431       .  A
C1467      O1472   1.371       .  S
C1468      C1469   1.414       .  A
C1469      C1470   1.411       .  A
C1469      H1473   1.080       .  S
C1470      O1474   1.372       .  S
O1472      H1476   0.992       .  S
O1474      H1475   0.992       .  S
C1477      C1478   1.416       .  A
C1477      C1482   1.427       .  A
C1478      C1479   1.413       .  A
C1478      H1483   1.083       .  S
C1479      C1480   1.408       .  A
C1479      O1484   1.373       .  S
C1480      C1481   1.401       .  A
C1481      C1482   1.389       .  A
C1481      H1485   1.082       .  S
C1482      O1486   1.376       .  S
O1484      H1488   0.992       .  S
O1486      H1487   0.993       .  S
C1489      C1490   1.412       .  A
C1489      C1494   1.405       .  A
C1490      C1491   1.424       .  A
C1490      H1495   1.083       .  S
C1491      C1492   1.422       .  A
C1491      O1496   1.371       .  S
C1492      C1493   1.425       .  A
C1493      C1494   1.413       .  A
C1493      H1497   1.080       .  S
C1494      O1498   1.370       .  S
O1496      H1500   0.992       .  S
O1498      H1499   0.992       .  S
C1501      C1502   1.421       .  A
C1501      C1506   1.419       .  A
C1502      C1503   1.386       .  A
C1502      H1507   1.067       .  S
C1503      C1504   1.394       .  A
C1503      O1508   1.373       .  S
C1504      C1505   1.409       .  A
C1505      C1506   1.401       .  A
C1505      H1509   1.081       .  S
C1506      O1510   1.373       .  S
O1508      H1512   0.992       .  S
O1510      H1511   0.992       .  S
C1513      C1514   1.418       .  A
C1513      C1518   1.433       .  A
C1514      C1515   1.434       .  A
C1514      H1519   1.082       .  S
C1515      C1516   1.426       .  A
C1515      O1520   1.371       .  S
C1516      C1517   1.403       .  A
C1517      C1518   1.396       .  A
C1517      H1521   1.078       .  S
C1518      O1522   1.374       .  S
O1520      H1524   0.992       .  S
O1522      H1523   0.993       .  S
C1525      C1526   1.415       .  A
C1525      C1530   1.421       .  A
C1526      C1527   1.424       .  A
C1526      H1531   1.082       .  S
C1527      C1528   1.422       .  A
C1527      O1532   1.371       .  S
C1528      C1529   1.408       .  A
C1529      C1530   1.380       .  A
C1529      H1533   1.079       .  S
C1530      O1534   1.375       .  S
O1532      H1536   0.991       .  S
O1534      H1535   0.993       .  S
C1537      C1538   1.401       .  A
C1537      C1542   1.416       .  A
C1538      C1539   1.396       .  A
C1538      H1543   1.076       .  S
C1539      C1540   1.429       .  A
C1539      O1544   1.361       .  S
C1540      C1541   1.426       .  A
C1541      C1542   1.422       .  A
C1541      H1545   1.083       .  S
C1542      O1546   1.369       .  S
O1544      H1548   0.990       .  S
O1546      H1547   0.992       .  S
C1549      C1550   1.415       .  A
C1549      C1554   1.414       .  A
C1550      C1551   1.402       .  A
C1550      H1555   1.079       .  S
C1551      C1552   1.411       .  A
C1551      O1556   1.372       .  S
C1552      C1553   1.417       .  A
C1553      C1554   1.415       .  A
C1553      H1557   1.083       .  S
C1554      O1558   1.372       .  S
O1556      H1560   0.991       .  S
O1558      H1559   0.993       .  S
C1561      C1562   1.404       .  A
C1561      C1566   1.403       .  A
C1562      C1563   1.416       .  A
C1562      H1567   1.084       .  S
C1563      C1564   1.427       .  A
C1563      O1568   1.371       .  S
C1564      C1565   1.423       .  A
C1565      C1566   1.406       .  A
C1565      H1569   1.076       .  S
C1566      O1570   1.372       .  S
O1568      H1572   0.991       .  S
O1570      H1571   0.992       .  S
C1573      C1574   1.420       .  A
C1573      C1578   1.421       .  A
C1574      C1575   1.415       .  A
C1574      H1579   1.060       .  S
C1575      C1576   1.413       .  A
C1575      O1580   1.376       .  S
C1576      C1577   1.410       .  A
C1577      C1578   1.408       .  A
C1577      H1581   1.075       .  S
C1578      O1582   1.377       .  S
O1580      H1584   0.992       .  S
O1582      H1583   0.992       .  S
C1585      C1586   1.401       .  A
C1585      C1590   1.406       .  A
C1586      C1587   1.417       .  A
C1586      H1591   1.083   1_554  S
C1587      C1588   1.433       .  A
C1587      O1592   1.369       .  S
C1588      C1589   1.415       .  A
C1589      C1590   1.390       .  A
C1589      H1593   1.081       .  S
C1590      O1594   1.374       .  S
O1592      H1596   0.992       .  S
O1594      H1595   0.992       .  S
C1597      C1598   1.415       .  A
C1597      C1602   1.410       .  A
C1598      C1599   1.419       .  A
C1598      H1603   1.082       .  S
C1599      C1600   1.421       .  A
C1599      O1604   1.372       .  S
C1600      C1601   1.421       .  A
C1601      C1602   1.393       .  A
C1601      H1605   1.075       .  S
C1602      O1606   1.372       .  S
O1604      H1608   0.992       .  S
O1606      H1607   0.992       .  S
C1609      C1610   1.426       .  A
C1609      C1614   1.425       .  A
C1610      C1611   1.426       .  A
C1610      H1615   1.078       .  S
C1611      C1612   1.412       .  A
C1611      O1616   1.366       .  S
C1612      C1613   1.405       .  A
C1613      C1614   1.388       .  A
C1613      H1617   1.085       .  S
C1614      O1618   1.368       .  S
O1616      H1620   0.992       .  S
O1618      H1619   0.991       .  S
C1621      C1622   1.417       .  A
C1621      C1626   1.414       .  A
C1622      C1623   1.383       .  A
C1622      H1627   1.074       .  S
C1623      C1624   1.407       .  A
C1623      O1628   1.375       .  S
C1624      C1625   1.425       .  A
C1625      C1626   1.428       .  A
C1625      H1629   1.081       .  S
C1626      O1630   1.369       .  S
O1628      H1632   0.993       .  S
O1630      H1631   0.992       .  S
C1633      C1634   1.377       .  A
C1633      C1638   1.404       .  A
C1634      C1635   1.391       .  A
C1634      H1639   1.084       .  S
C1635      C1636   1.438       .  A
C1635      O1640   1.374       .  S
C1636      C1637   1.414       .  A
C1637      C1638   1.400       .  A
C1637      H1641   1.077       .  S
C1638      O1642   1.372       .  S
O1640      H1644   0.992       .  S
O1642      H1643   0.992       .  S
C1645      C1646   1.420       .  A
C1645      C1650   1.424       .  A
C1646      C1647   1.397       .  A
C1646      H1651   1.083       .  S
C1647      C1648   1.404       .  A
C1647      O1652   1.371       .  S
C1648      C1649   1.399       .  A
C1649      C1650   1.382       .  A
C1649      H1653   1.081       .  S
C1650      O1654   1.369       .  S
O1652      H1656   0.992       .  S
O1654      H1655   0.992       .  S
C1657      C1658   1.422       .  A
C1657      C1662   1.423       .  A
C1658      C1659   1.420       .  A
C1658      H1663   1.081       .  S
C1659      C1660   1.411       .  A
C1659      O1664   1.371       .  S
C1660      C1661   1.404       .  A
C1661      C1662   1.410       .  A
C1661      H1665   1.084       .  S
C1662      O1666   1.371       .  S
O1664      H1668   0.992       .  S
O1666      H1667   0.992       .  S
C1669      C1670   1.417       .  A
C1669      C1674   1.436       .  A
C1670      C1671   1.408       .  A
C1670      H1675   1.082       .  S
C1671      C1672   1.409       .  A
C1671      O1676   1.370       .  S
C1672      C1673   1.394       .  A
C1673      C1674   1.401       .  A
C1673      H1677   1.084       .  S
C1674      O1678   1.372       .  S
O1676      H1680   0.992       .  S
O1678      H1679   0.992       .  S
C1681      C1682   1.416       .  A
C1681      C1686   1.426       .  A
C1682      C1683   1.411       .  A
C1682      H1687   1.081       .  S
C1683      C1684   1.418       .  A
C1683      O1688   1.373       .  S
C1684      C1685   1.404       .  A
C1685      C1686   1.409       .  A
C1685      H1689   1.083       .  S
C1686      O1690   1.369       .  S
O1688      H1692   0.992       .  S
O1690      H1691   0.992       .  S
C1693      C1694   1.417       .  A
C1693      C1698   1.407       .  A
C1694      C1695   1.394       .  A
C1694      H1699   1.074       .  S
C1695      C1696   1.410       .  A
C1695      O1700   1.369       .  S
C1696      C1697   1.418       .  A
C1697      C1698   1.410       .  A
C1697      H1701   1.080       .  S
C1698      O1702   1.371       .  S
O1700      H1704   0.991       .  S
O1702      H1703   0.992       .  S
C1705      C1706   1.398       .  A
C1705      C1710   1.407       .  A
C1706      C1707   1.393       .  A
C1706      H1711   1.081       .  S
C1707      C1708   1.426       .  A
C1707      O1712   1.360       .  S
C1708      C1709   1.426       .  A
C1709      C1710   1.413       .  A
C1709      H1713   1.083       .  S
C1710      O1714   1.369       .  S
O1712      H1716   0.989       .  S
O1714      H1715   0.991       .  S
C1717      C1718   1.418       .  A
C1717      C1722   1.420       .  A
C1718      C1719   1.410       .  A
C1718      H1723   1.082       .  S
C1719      C1720   1.407       .  A
C1719      O1724   1.370       .  S
C1720      C1721   1.405       .  A
C1721      C1722   1.413       .  A
C1721      H1725   1.082       .  S
C1722      O1726   1.371       .  S
O1724      H1728   0.992       .  S
O1726      H1727   0.992       .  S
C1729      C1730   1.415       .  A
C1729      C1734   1.433       .  A
C1730      C1731   1.395       .  A
C1730      H1735   1.082       .  S
C1731      C1732   1.411       .  A
C1731      O1736   1.372       .  S
C1732      C1733   1.404       .  A
C1733      C1734   1.423       .  A
C1733      H1737   1.083       .  S
C1734      O1738   1.370       .  S
O1736      H1740   0.992       .  S
O1738      H1739   0.992       .  S
C1741      C1742   1.410       .  A
C1741      C1746   1.423       .  A
C1742      C1743   1.385       .  A
C1742      H1747   1.081       .  S
C1743      C1744   1.412       .  A
C1743      O1748   1.367       .  S
C1744      C1745   1.402       .  A
C1745      C1746   1.399       .  A
C1745      H1749   1.082       .  S
C1746      O1750   1.373       .  S
O1748      H1752   0.992       .  S
O1750      H1751   0.992       .  S
C1753      C1754   1.421       .  A
C1753      C1758   1.419       .  A
C1754      C1755   1.394       .  A
C1754      H1759   1.078       .  S
C1755      C1756   1.409       .  A
C1755      O1760   1.373       .  S
C1756      C1757   1.415       .  A
C1757      C1758   1.421       .  A
C1757      H1761   1.081       .  S
C1758      O1762   1.374       .  S
O1760      H1764   0.992       .  S
O1762      H1763   0.992       .  S
C1765      C1766   1.416       .  A
C1765      C1770   1.427       .  A
C1766      C1767   1.397       .  A
C1766      H1771   1.079       .  S
C1767      C1768   1.414       .  A
C1767      O1772   1.374       .  S
C1768      C1769   1.413       .  A
C1769      C1770   1.431       .  A
C1769      H1773   1.078       .  S
C1770      O1774   1.372       .  S
O1772      H1776   0.992       .  S
O1774      H1775   0.992       .  S
C1777      C2321   1.580       .  S
C1777      C2333   1.561       .  S
C1777      C2345   1.582       .  S
C1777      C2357   1.592       .  S
C1778      C1780   1.539       .  S
C1778      C1782   1.542       .  S
C1778      C1781   1.553       .  S
C1778      C2360   1.557       .  S
C1779      C1783   1.556       .  S
C1779      C1785   1.554       .  S
C1779      C1784   1.531       .  S
C1779      C2312   1.572       .  S
C1780      C1788   1.394       .  A
C1780      C1783   1.393       .  A
C1781      C1792   1.388       .  A
C1781      C1784   1.411       .  A
C1782      C1796   1.381       .  A
C1782      C1785   1.406       .  A
C1783      C1786   1.381       .  A
C1784      C1790   1.357       .  A
C1785      C1793   1.390       .  A
C1786      N1787   1.351       .  A
C1786      H1799   1.069       .  S
N1787      C1788   1.358       .  A
N1787      C2297   1.454       .  S
C1788      H1789   1.081       .  S
C1790      N1791   1.355   1_455  A
C1790      H1800   1.081   1_455  S
N1791      C1792   1.363   1_655  A
N1791      N1840   1.409       .  S
C1792      H1798   1.079       .  S
C1793      N1794   1.353       .  A
C1793      H1795   1.065       .  S
N1794      C1796   1.359       .  A
N1794      C2288   1.458       .  S
C1796      H1797   1.077       .  S
C1801      C2249   1.581       .  S
C1801      C2261   1.574       .  S
C1801      C2273   1.575       .  S
C1801      C2309   1.564       .  S
C1802      C1804   1.531       .  S
C1802      C1806   1.536       .  S
C1802      C1805   1.544       .  S
C1802      C2348   1.549       .  S
C1803      C1807   1.539       .  S
C1803      C1809   1.511       .  S
C1803      C1808   1.536       .  S
C1803      C2216   1.555       .  S
C1804      C1812   1.382       .  A
C1804      C1807   1.417       .  A
C1805      C1816   1.370       .  A
C1805      C1808   1.428       .  A
C1806      C1820   1.377       .  A
C1806      C1809   1.381       .  A
C1807      C1810   1.379       .  A
C1808      C1814   1.364       .  A
C1809      C1817   1.360       .  A
C1810      N1811   1.339       .  A
C1810      H1823   1.084       .  S
N1811      C1812   1.340       .  A
N1811      C2225   1.418       .  S
C1812      H1813   1.083       .  S
C1817      N1818   1.355       .  A
C1817      H1819   1.082       .  S
N1818      C1820   1.362       .  A
N1818      C2240   1.434       .  S
C1820      H1821   1.081       .  S
C1825      C2180   1.574       .  S
C1825      C2192   1.584       .  S
C1825      C2201   1.583       .  S
C1825      C2237   1.567       .  S
C1826      C2156   1.582       .  S
C1826      C2165   1.592       .  S
C1826      C2228   1.566       .  S
C1826      C2285   1.572       .  S
C1827      C1829   1.562       .  S
C1827      C1831   1.546       .  S
C1827      C1830   1.567       .  S
C1827      C2204   1.551       .  S
C1828      C1832   1.529       .  S
C1828      C1834   1.521       .  S
C1828      C1833   1.541       .  S
C1828      C2117   1.551       .  S
C1829      C1837   1.408       .  A
C1829      C1832   1.397       .  A
C1830      C1841   1.387       .  A
C1830      C1833   1.425       .  A
C1831      C1845   1.399       .  A
C1831      C1834   1.376       .  A
C1832      C1835   1.381       .  A
C1833      C1839   1.356       .  A
C1834      C1842   1.381       .  A
C1835      N1836   1.356       .  A
C1835      H1848   1.076       .  S
N1836      C1837   1.366       .  A
N1836      C2129   1.475       .  S
C1837      H1838   1.078       .  S
C1839      N1840   1.356       .  A
C1839      H1849   1.080       .  S
N1840      C1841   1.364       .  A
C1841      H1847   1.078       .  S
C1842      N1843   1.352       .  A
C1842      H1844   1.080       .  S
N1843      C1845   1.366       .  A
N1843      C2141   1.463       .  S
C1845      H1846   1.079       .  S
C1850      C2084   1.582       .  S
C1850      C2093   1.570       .  S
C1850      C2105   1.590       .  S
C1850      C2144   1.568       .  S
C1851      C2060   1.585       .  S
C1851      C2069   1.569       .  S
C1851      C2132   1.603       .  S
C1851      C2213   1.570       .  S
C1852      C1854   1.529       .  S
C1852      C1856   1.519       .  S
C1852      C1855   1.524       .  S
C1852      C2276   1.549       .  S
C1853      C1857   1.545       .  S
C1853      C1859   1.544       .  S
C1853      C1858   1.538       .  S
C1853      C2108   1.574       .  S
C1854      C1862   1.376       .  A
C1854      C1857   1.417       .  A
C1855      C1858   1.415       .  A
C1856      C1870   1.379       .  A
C1856      C1859   1.405       .  A
C1857      C1860   1.387       .  A
C1859      C1867   1.385       .  A
C1860      N1861   1.351       .  A
C1860      H1873   1.078       .  S
N1861      C1862   1.349       .  A
N1861      C2045   1.443       .  S
C1862      H1863   1.082       .  S
C1864      N1865   1.354       .  A
C1864      H1874   1.081       .  S
N1865      C1866   1.342       .  A
C1866      H1872   1.081       .  S
C1867      N1868   1.345       .  A
C1867      H1869   1.083       .  S
N1868      C1870   1.343       .  A
N1868      C2036   1.420       .  S
C1870      H1871   1.083       .  S
C1875      C2009   1.568       .  S
C1875      C2021   1.568       .  S
C1875      C2048   1.563       .  S
C1875      C2300   1.591       .  S
C1876      C1985   1.573       .  S
C1876      C2000   1.572       .  S
C1876      C2033   1.571       .  S
C1876      C2120   1.578       .  S
C1877      C1879   1.542       .  S
C1877      C1881   1.542       .  S
C1877      C1880   1.545       .  S
C1877      C2189   1.548       .  S
C1878      C1882   1.535       .  S
C1878      C1884   1.508       .  S
C1878      C1883   1.527       .  S
C1878      C2024   1.541       .  S
C1879      C1887   1.389       .  A
C1879      C1882   1.413       .  A
C1880      C1883   1.419       .  A
C1881      C1895   1.381       .  A
C1881      C1884   1.375       .  A
C1882      C1885   1.379       .  A
C1884      C1892   1.361       .  A
C1885      N1886   1.339       .  A
C1885      H1898   1.081       .  S
N1886      C1887   1.350       .  A
N1886      C2096   1.438       .  S
C1887      H1888   1.080       .  S
C1889      N1890   1.340   1_554  A
C1889      H1899   1.081       .  S
N1890      C1891   1.355   1_556  A
N1890      N1913   1.381       .  S
C1891      H1897   1.082   1_554  S
C1892      N1893   1.357       .  A
C1892      H1894   1.076       .  S
N1893      C1895   1.366       .  A
N1893      C2336   1.448       .  S
C1895      H1896   1.081       .  S
C1900      C1902   1.538       .  S
C1900      C1904   1.532       .  S
C1900      C1903   1.531       .  S
C1900      C1997   1.546       .  S
C1901      C1905   1.539       .  S
C1901      C1907   1.549       .  S
C1901      C1906   1.530       .  S
C1901      C2168   1.565       .  S
C1902      C1910   1.385       .  A
C1902      C1905   1.397       .  A
C1903      C1914   1.370       .  A
C1903      C1906   1.426       .  A
C1904      C1918   1.390       .  A
C1904      C1907   1.415       .  A
C1905      C1908   1.383       .  A
C1906      C1912   1.369       .  A
C1907      C1915   1.382       .  A
C1908      N1909   1.351       .  A
C1908      H1921   1.081       .  S
N1909      C1910   1.356       .  A
N1909      C2072   1.443       .  S
C1910      H1911   1.080       .  S
C1912      N1913   1.342       .  A
C1912      H1922   1.083       .  S
N1913      C1914   1.331       .  A
C1914      H1920   1.082       .  S
C1915      N1916   1.353       .  A
C1915      H1917   1.080       .  S
N1916      C1918   1.351       .  A
N1916      C2264   1.444       .  S
C1918      H1919   1.082       .  S
O1923     Zr1935   2.408   1_455  S
O1923      C1925   1.282       .  A
C1925      C2324   1.514       .  S
O1926      C1928   1.288       .  A
C1928      C2081   1.510       .  S
O1929      C1931   1.291       .  A
O1930     Zr1961   2.482       .  S
C1931      C2012   1.509       .  S
O1932     Zr1935   2.398       .  S
O1932      C1934   1.281       .  A
O1933     Zr1962   2.484       .  S
C1934      C2177   1.492       .  S
Zr1935     O1936   2.434       .  S
Zr1935     O1937   2.438       .  S
Zr1935     O1942   2.354       .  S
O1936      H1979   0.990       .  S
O1937      H1982   0.990       .  S
Zr1938     O1940   2.435       .  S
Zr1938     O1966   2.379   1_654  S
Zr1938     O1968   2.372   1_554  S
O1939      H1980   0.990       .  S
O1939      H1983   0.990       .  S
O1940      H1973   0.990   1_554  S
O1943     Zr1955   2.444       .  S
O1943      C1945   1.289       .  A
O1944     Zr1962   2.527       .  S
O1944      C1945   1.308       .  A
C1945      C2057   1.532       .  S
O1946     Zr1958   2.433   1_455  S
O1946      C1948   1.287       .  A
O1947     Zr1961   2.502       .  S
O1947      C1948   1.302       .  A
C1948      C2252   1.500       .  S
O1949     Zr1958   2.433       .  S
O1949      C1951   1.286       .  A
O1950      C1951   1.300       .  A
C1951      C1988   1.490       .  S
O1952     Zr1955   2.456   1_455  S
O1952      C1954   1.292       .  A
O1953      C1954   1.298       .  A
C1954      C2153   1.494       .  S
Zr1955     O1956   2.434       .  S
Zr1955     O1957   2.436       .  S
Zr1955     O1963   2.378       .  S
Zr1955     O1964   2.369   1_655  S
Zr1955     O1967   2.378   1_655  S
Zr1955     O1965   2.371       .  S
O1956      H1976   0.990       .  S
O1956      H1981   0.990   1_655  S
O1957      H1977   0.990       .  S
Zr1958     O1959   2.436       .  S
Zr1958     O1960   2.436       .  S
Zr1958     O1968   2.379       .  S
Zr1958     O1966   2.356   1_655  S
O1959      H1975   0.990       .  S
O1960      H1974   0.990       .  S
O1960      H1984   0.990       .  S
Zr1961     O1966   2.408       .  S
Zr1962     O1963   2.406       .  S
Zr1962     O1965   2.402       .  S
O1963      H1971   0.966       .  S
O1966      H1970   0.965       .  S
O1967      H1972   0.965       .  S
C1985      C1986   1.417       .  A
C1985      C1990   1.427       .  A
C1986      C1987   1.414       .  A
C1986      H1991   1.081       .  S
C1987      C1988   1.407       .  A
C1987      O1992   1.371       .  S
C1988      C1989   1.398       .  A
C1989      C1990   1.406       .  A
C1989      H1993   1.084       .  S
C1990      O1994   1.373       .  S
O1992      H1996   0.991       .  S
O1994      H1995   0.992       .  S
C1997      C1998   1.408       .  A
C1997      C2002   1.408       .  A
C1998      C1999   1.402       .  A
C1998      H2003   1.081       .  S
C1999      C2000   1.424       .  A
C1999      O2004   1.375       .  S
C2000      C2001   1.418       .  A
C2001      C2002   1.409       .  A
C2001      H2005   1.076       .  S
C2002      O2006   1.370       .  S
O2004      H2008   0.992       .  S
O2006      H2007   0.988       .  S
C2009      C2010   1.421       .  A
C2009      C2014   1.426       .  A
C2010      C2011   1.414       .  A
C2010      H2015   1.082       .  S
C2011      C2012   1.410       .  A
C2011      O2016   1.371       .  S
C2012      C2013   1.407       .  A
C2013      C2014   1.403       .  A
C2013      H2017   1.083       .  S
C2014      O2018   1.370       .  S
O2016      H2020   0.992       .  S
O2018      H2019   0.992       .  S
C2021      C2022   1.414       .  A
C2021      C2026   1.414       .  A
C2022      C2023   1.372       .  A
C2022      H2027   1.074       .  S
C2023      C2024   1.403       .  A
C2023      O2028   1.377       .  S
C2024      C2025   1.422       .  A
C2025      C2026   1.421       .  A
C2025      H2029   1.081       .  S
C2026      O2030   1.369       .  S
O2028      H2032   0.993       .  S
C2033      C2034   1.416       .  A
C2033      C2038   1.435       .  A
C2034      C2035   1.402       .  A
C2034      H2039   1.078       .  S
C2035      C2036   1.400       .  A
C2035      O2040   1.371       .  S
C2036      C2037   1.383       .  A
C2037      C2038   1.383       .  A
C2037      H2041   1.084       .  S
C2038      O2042   1.371       .  S
O2040      H2044   0.992       .  S
O2042      H2043   0.992       .  S
C2045      C2046   1.413       .  A
C2045      C2050   1.403       .  A
C2046      C2047   1.408       .  A
C2046      H2051   1.083       .  S
C2047      C2048   1.411       .  A
C2047      O2052   1.370       .  S
C2048      C2049   1.419       .  A
C2049      C2050   1.390       .  A
C2049      H2053   1.083       .  S
C2050      O2054   1.372       .  S
O2052      H2056   0.991       .  S
O2054      H2055   0.993       .  S
C2057      C2058   1.408       .  A
C2057      C2062   1.423       .  A
C2058      C2059   1.427       .  A
C2058      H2063   1.083       .  S
C2059      C2060   1.432       .  A
C2059      O2064   1.371       .  S
C2060      C2061   1.413       .  A
C2061      C2062   1.410       .  A
C2061      H2065   1.080       .  S
C2062      O2066   1.372       .  S
O2064      H2068   0.992       .  S
O2066      H2067   0.992       .  S
C2069      C2070   1.414       .  A
C2069      C2074   1.431       .  A
C2070      C2071   1.413       .  A
C2070      H2075   1.083       .  S
C2071      C2072   1.407       .  A
C2071      O2076   1.372       .  S
C2072      C2073   1.399       .  A
C2073      C2074   1.388       .  A
C2073      H2077   1.083       .  S
C2074      O2078   1.377       .  S
O2076      H2080   0.991       .  S
O2078      H2079   0.993       .  S
C2081      C2082   1.410       .  A
C2081      C2086   1.405       .  A
C2082      C2083   1.421       .  A
C2082      H2087   1.084       .  S
C2083      C2084   1.421       .  A
C2083      O2088   1.371       .  S
C2084      C2085   1.423       .  A
C2085      C2086   1.414       .  A
C2085      H2089   1.080       .  S
C2086      O2090   1.370       .  S
O2088      H2092   0.992       .  S
O2090      H2091   0.992       .  S
C2093      C2094   1.422       .  A
C2093      C2098   1.419       .  A
C2094      C2095   1.386       .  A
C2094      H2099   1.068       .  S
C2095      C2096   1.392       .  A
C2095      O2100   1.373       .  S
C2096      C2097   1.410       .  A
C2097      C2098   1.402       .  A
C2097      H2101   1.081       .  S
C2098      O2102   1.373       .  S
O2100      H2104   0.992       .  S
O2102      H2103   0.992       .  S
C2105      C2106   1.420       .  A
C2105      C2110   1.430       .  A
C2106      C2107   1.433       .  A
C2106      H2111   1.082       .  S
C2107      C2108   1.426       .  A
C2107      O2112   1.371       .  S
C2108      C2109   1.403       .  A
C2109      C2110   1.393       .  A
C2109      H2113   1.077       .  S
C2110      O2114   1.374       .  S
O2112      H2116   0.992       .  S
O2114      H2115   0.993       .  S
C2117      C2118   1.417       .  A
C2117      C2122   1.421       .  A
C2118      C2119   1.424       .  A
C2118      H2123   1.082       .  S
C2119      C2120   1.422       .  A
C2119      O2124   1.371       .  S
C2120      C2121   1.407       .  A
C2121      C2122   1.379       .  A
C2121      H2125   1.079       .  S
C2122      O2126   1.375       .  S
O2124      H2128   0.991       .  S
O2126      H2127   0.993       .  S
C2129      C2130   1.405       .  A
C2129      C2134   1.418       .  A
C2130      C2131   1.399       .  A
C2130      H2135   1.075       .  S
C2131      C2132   1.427       .  A
C2131      O2136   1.360       .  S
C2132      C2133   1.427       .  A
C2133      C2134   1.422       .  A
C2133      H2137   1.083       .  S
C2134      O2138   1.369       .  S
O2136      H2140   0.991       .  S
O2138      H2139   0.992       .  S
C2141      C2142   1.415       .  A
C2141      C2146   1.416       .  A
C2142      C2143   1.403       .  A
C2142      H2147   1.079       .  S
C2143      C2144   1.411       .  A
C2143      O2148   1.371       .  S
C2144      C2145   1.417       .  A
C2145      C2146   1.415       .  A
C2145      H2149   1.083       .  S
C2146      O2150   1.372       .  S
O2148      H2152   0.992       .  S
O2150      H2151   0.993       .  S
C2153      C2154   1.405       .  A
C2153      C2158   1.400       .  A
C2154      C2155   1.416       .  A
C2154      H2159   1.084       .  S
C2155      C2156   1.427       .  A
C2155      O2160   1.371       .  S
C2156      C2157   1.423       .  A
C2157      C2158   1.404       .  A
C2157      H2161   1.075       .  S
C2158      O2162   1.372       .  S
O2160      H2164   0.991       .  S
O2162      H2163   0.992       .  S
C2165      C2166   1.421       .  A
C2165      C2170   1.421       .  A
C2166      C2167   1.419       .  A
C2166      H2171   1.062       .  S
C2167      C2168   1.414       .  A
C2167      O2172   1.376       .  S
C2168      C2169   1.411       .  A
C2169      C2170   1.407       .  A
C2169      H2173   1.075       .  S
C2170      O2174   1.378       .  S
O2172      H2176   0.992       .  S
O2174      H2175   0.992       .  S
C2177      C2178   1.401       .  A
C2177      C2182   1.408       .  A
C2178      C2179   1.417       .  A
C2178      H2183   1.083       .  S
C2179      C2180   1.434       .  A
C2179      O2184   1.369       .  S
C2180      C2181   1.414       .  A
C2181      C2182   1.393       .  A
C2181      H2185   1.082       .  S
C2182      O2186   1.374       .  S
O2184      H2188   0.992       .  S
O2186      H2187   0.992       .  S
C2189      C2190   1.414       .  A
C2189      C2194   1.414       .  A
C2190      C2191   1.420       .  A
C2190      H2195   1.082       .  S
C2191      C2192   1.422       .  A
C2191      O2196   1.372       .  S
C2192      C2193   1.418       .  A
C2193      C2194   1.393       .  A
C2193      H2197   1.075       .  S
C2194      O2198   1.372       .  S
O2196      H2200   0.992       .  S
O2198      H2199   0.992       .  S
C2201      C2202   1.426       .  A
C2201      C2206   1.425       .  A
C2202      C2203   1.427       .  A
C2202      H2207   1.079       .  S
C2203      C2204   1.412       .  A
C2203      O2208   1.366       .  S
C2204      C2205   1.408       .  A
C2205      C2206   1.390       .  A
C2205      H2209   1.085       .  S
C2206      O2210   1.369       .  S
O2208      H2212   0.992       .  S
O2210      H2211   0.991       .  S
C2213      C2214   1.418       .  A
C2213      C2218   1.411       .  A
C2214      C2215   1.383       .  A
C2214      H2219   1.079       .  S
C2215      C2216   1.411       .  A
C2215      O2220   1.376       .  S
C2216      C2217   1.424       .  A
C2217      C2218   1.424       .  A
C2217      H2221   1.080       .  S
C2218      O2222   1.369       .  S
O2220      H2224   0.993       .  S
O2222      H2223   0.992       .  S
C2225      C2226   1.376       .  A
C2225      C2230   1.404       .  A
C2226      C2227   1.388       .  A
C2226      H2231   1.084       .  S
C2227      C2228   1.438       .  A
C2227      O2232   1.374       .  S
C2228      C2229   1.411       .  A
C2229      C2230   1.395       .  A
C2229      H2233   1.077       .  S
C2230      O2234   1.372       .  S
O2232      H2236   0.992       .  S
O2234      H2235   0.992       .  S
C2237      C2238   1.420       .  A
C2237      C2242   1.426       .  A
C2238      C2239   1.397       .  A
C2238      H2243   1.083       .  S
C2239      C2240   1.403       .  A
C2239      O2244   1.371       .  S
C2240      C2241   1.398       .  A
C2241      C2242   1.383       .  A
C2241      H2245   1.081       .  S
C2242      O2246   1.368       .  S
O2244      H2248   0.992       .  S
O2246      H2247   0.992       .  S
C2249      C2250   1.421       .  A
C2249      C2254   1.423       .  A
C2250      C2251   1.417       .  A
C2250      H2255   1.081       .  S
C2251      C2252   1.409       .  A
C2251      O2256   1.371       .  S
C2252      C2253   1.402       .  A
C2253      C2254   1.409       .  A
C2253      H2257   1.084       .  S
C2254      O2258   1.371       .  S
O2256      H2260   0.991       .  S
O2258      H2259   0.992       .  S
C2261      C2262   1.419       .  A
C2261      C2266   1.433       .  A
C2262      C2263   1.411       .  A
C2262      H2267   1.082       .  S
C2263      C2264   1.409       .  A
C2263      O2268   1.371       .  S
C2264      C2265   1.389       .  A
C2265      C2266   1.396       .  A
C2265      H2269   1.084       .  S
C2266      O2270   1.369       .  S
O2268      H2272   0.992       .  S
O2270      H2271   0.991       .  S
C2273      C2274   1.415       .  A
C2273      C2278   1.427       .  A
C2274      C2275   1.409       .  A
C2274      H2279   1.081       .  S
C2275      C2276   1.417       .  A
C2275      O2280   1.372       .  S
C2276      C2277   1.404       .  A
C2277      C2278   1.408       .  A
C2277      H2281   1.083       .  S
C2278      O2282   1.369       .  S
O2280      H2284   0.992       .  S
O2282      H2283   0.993       .  S
C2285      C2286   1.421       .  A
C2285      C2290   1.405       .  A
C2286      C2287   1.393       .  A
C2286      H2291   1.072       .  S
C2287      C2288   1.408       .  A
C2287      O2292   1.370       .  S
C2288      C2289   1.419       .  A
C2289      C2290   1.411       .  A
C2289      H2293   1.080       .  S
C2290      O2294   1.370       .  S
O2292      H2296   0.992       .  S
O2294      H2295   0.992       .  S
C2297      C2298   1.396       .  A
C2297      C2302   1.408       .  A
C2298      C2299   1.395       .  A
C2298      H2303   1.082       .  S
C2299      C2300   1.429       .  A
C2299      O2304   1.360       .  S
C2300      C2301   1.426       .  A
C2301      C2302   1.414       .  A
C2301      H2305   1.083       .  S
C2302      O2306   1.370       .  S
O2304      H2308   0.990       .  S
O2306      H2307   0.991       .  S
C2309      C2310   1.418       .  A
C2309      C2314   1.420       .  A
C2310      C2311   1.408       .  A
C2310      H2315   1.082       .  S
C2311      C2312   1.409       .  A
C2311      O2316   1.370       .  S
C2312      C2313   1.404       .  A
C2313      C2314   1.414       .  A
C2313      H2317   1.082       .  S
C2314      O2318   1.370       .  S
O2316      H2320   0.992       .  S
O2318      H2319   0.991       .  S
C2321      C2322   1.415       .  A
C2321      C2326   1.433       .  A
C2322      C2323   1.399       .  A
C2322      H2327   1.083       .  S
C2323      C2324   1.414       .  A
C2323      O2328   1.372       .  S
C2324      C2325   1.407       .  A
C2325      C2326   1.427       .  A
C2325      H2329   1.083       .  S
C2326      O2330   1.370       .  S
O2328      H2332   0.992       .  S
O2330      H2331   0.992       .  S
C2333      C2334   1.409       .  A
C2333      C2338   1.423       .  A
C2334      C2335   1.388       .  A
C2334      H2339   1.081       .  S
C2335      C2336   1.415       .  A
C2335      O2340   1.367       .  S
C2336      C2337   1.404       .  A
C2337      C2338   1.401       .  A
C2337      H2341   1.082       .  S
C2338      O2342   1.373       .  S
O2340      H2344   0.992       .  S
O2342      H2343   0.992       .  S
C2345      C2346   1.422       .  A
C2345      C2350   1.419       .  A
C2346      C2347   1.394       .  A
C2346      H2351   1.078       .  S
C2347      C2348   1.408       .  A
C2347      O2352   1.373       .  S
C2348      C2349   1.416       .  A
C2349      C2350   1.422       .  A
C2349      H2353   1.081       .  S
C2350      O2354   1.373       .  S
O2352      H2356   0.992       .  S
O2354      H2355   0.991       .  S
C2357      C2358   1.416       .  A
C2357      C2362   1.427       .  A
C2358      C2359   1.396       .  A
C2358      H2363   1.078       .  S
C2359      C2360   1.414       .  A
C2359      O2364   1.375       .  S
C2360      C2361   1.412       .  A
C2361      C2362   1.430       .  A
C2361      H2365   1.078       .  S
C2362      O2366   1.372       .  S
O2364      H2368   0.992       .  S
O2366      H2367   0.992       .  S
