geometry optimzed in LAMMPS
_audit_creation_date              2020-11-30 
_audit_creation_method            'lammps2cif' 
_symmetry_space_group_name_H-M    'P1' 
_symmetry_Int_Tables_number       1 
_symmetry_cell_setting            triclinic 
loop_ 
_symmetry_equiv_pos_as_xyz 
  x,y,z 
_cell_length_a                    36.34189138311792 
_cell_length_b                    36.759936812515896 
_cell_length_c                    36.80619390168339 
_cell_angle_alpha                 89.20231496829331 
_cell_angle_beta                  90.60044452834258 
_cell_angle_gamma                 88.50999310604183 
loop_ 
_atom_site_label 
_atom_site_type_symbol 
_atom_site_fract_x 
_atom_site_fract_y 
_atom_site_fract_z 
_atom_site_charge 
O1          O  0.49842029  0.31293360  0.55488233    -0.80380
O2          O  0.43503073  0.22211058  0.44707947    -0.79680
O3          O  0.44664056  0.29752976  0.51492102    -0.80410
O4          O  0.51686905  0.23558463  0.55451737    -0.80350
O5          O  0.42582065  0.28983686  0.46245186    -0.80480
O6          O  0.56258401  0.27335627  0.56814279    -0.80400
O7          O  0.45615602  0.22036511  0.50375498    -0.80380
O8          O  0.47698997  0.36195145  0.52273420    -0.80420
C9          C  0.48449274  0.34602094  0.55307840     1.09310
C10         C  0.42862013  0.21850445  0.48060103     1.09190
C11         C  0.42044387  0.30229766  0.49330193     1.09330
C12         C  0.53831524  0.25135094  0.57817351     1.09210
O13         O  0.58317250  0.27511680  0.49837435    -0.80380
O14         O  0.47342571  0.28707309  0.41823617    -0.80460
O15         O  0.53233061  0.34975953  0.47678947    -0.80390
O16         O  0.51762154  0.20832475  0.44278767    -0.80370
O17         O  0.48846856  0.25527120  0.41682985    -0.80430
O18         O  0.56361212  0.33362119  0.52462951    -0.80390
O19         O  0.57175893  0.21800509  0.49606479    -0.80350
O20         O  0.46931483  0.33946043  0.44855883    -0.80420
Co21       Co  0.53919893  0.28697275  0.52485022     1.51530
Co22       Co  0.46989250  0.25587729  0.46344431     1.51690
Co23       Co  0.49111833  0.32211139  0.49590581     1.51570
Co24       Co  0.51516883  0.22416638  0.49787174     1.51470
O25         O  0.51276763  0.27943183  0.47964913    -1.42310
C26         C  0.59457136  0.24356037  0.49408937     1.09240
C27         C  0.47222605  0.32202012  0.41895358     1.09330
C28         C  0.55891085  0.35443041  0.49783869     1.09260
C29         C  0.50881559  0.22727213  0.41392032     1.09240
O30         O  0.50557229  0.44267829  0.29468010    -0.80380
O31         O  0.43648311  0.56917200  0.23670331    -0.80400
O32         O  0.45122231  0.49023783  0.30018180    -0.80410
O33         O  0.51353625  0.45511305  0.22162122    -0.80350
O34         O  0.44085347  0.54708847  0.30018392    -0.80480
O35         O  0.56558605  0.43454949  0.24858413    -0.80400
O36         O  0.45328777  0.51279847  0.22224461    -0.80380
O37         O  0.49497668  0.46205219  0.35181024    -0.80420
C38         C  0.49821427  0.43645891  0.32860164     1.09310
C39         C  0.42724258  0.53759968  0.22715272     1.09190
C40         C  0.42954571  0.51624621  0.30705735     1.09330
C41         C  0.53681714  0.42802407  0.23074365     1.09210
O42         O  0.58801522  0.50190716  0.26030085    -0.80380
O43         O  0.49138302  0.58281721  0.29866045    -0.80460
O44         O  0.55057826  0.50648916  0.33975196    -0.80390
O45         O  0.51380993  0.57297807  0.21109037    -0.80370
O46         O  0.49839973  0.59175222  0.26530678    -0.80430
O47         O  0.57766894  0.46199527  0.31319140    -0.80390
O48         O  0.56774243  0.51733975  0.20690715    -0.80350
O49         O  0.49297849  0.54319905  0.34578888    -0.80420
Co50       Co  0.54549848  0.47487345  0.27156879     1.51530
Co51       Co  0.47707317  0.54587394  0.26114417     1.51690
Co52       Co  0.50318467  0.49807468  0.31718139     1.51570
Co53       Co  0.51250092  0.51483790  0.21921447     1.51470
O54         O  0.52044823  0.52179990  0.27597295    -1.42310
C55         C  0.59422363  0.51405176  0.22965888     1.09240
C56         C  0.49747949  0.57530296  0.33264648     1.09330
C57         C  0.57690974  0.48419714  0.33827055     1.09260
C58         C  0.51072084  0.59925102  0.23440720     1.09240
O59         O  0.56540699  0.66444032  0.45617030    -0.80380
O60         O  0.57294471  0.80170554  0.49661209    -0.80400
O61         O  0.48216499  0.75490740  0.40870912    -0.80410
O62         O  0.59909794  0.73014712  0.53406249    -0.80350
O63         O  0.51733724  0.79530877  0.43782954    -0.80480
O64         O  0.59118374  0.72607550  0.47747093    -0.80400
O65         O  0.58827638  0.79262076  0.55450649    -0.80380
O66         O  0.54427146  0.71496723  0.42760136    -0.80420
C67         C  0.55452566  0.68059382  0.42698169     1.09310
C68         C  0.59799988  0.80122316  0.52245203     1.09190
C69         C  0.50346142  0.78150661  0.40768422     1.09330
C70         C  0.61204195  0.72118283  0.50441236     1.09210
O71         O  0.55966716  0.67573312  0.53044386    -0.80380
O72         O  0.45766236  0.79858042  0.49906497    -0.80460
O73         O  0.47517613  0.69198583  0.44463539    -0.80390
O74         O  0.53222160  0.75240213  0.57677583    -0.80370
O75         O  0.50862531  0.80363960  0.55473836    -0.80430
O76         O  0.50175038  0.66907146  0.49267727    -0.80390
O77         O  0.54772318  0.72123943  0.56903879    -0.80350
O78         O  0.44948486  0.74824799  0.47098358    -0.80420
Co79       Co  0.54444436  0.69990389  0.48479557     1.51530
Co80       Co  0.51427778  0.79601195  0.49720243     1.51690
Co81       Co  0.49844737  0.73829253  0.45330432     1.51570
Co82       Co  0.55445697  0.76121234  0.53098029     1.51470
O83         O  0.51663220  0.73857691  0.50437432    -1.42310
C84         C  0.55295459  0.68715607  0.56208318     1.09240
C85         C  0.43619574  0.77421382  0.48816336     1.09330
C86         C  0.47779164  0.66732431  0.46814898     1.09260
C87         C  0.51387881  0.78127370  0.58216719     1.09240
O88         O  0.70339559  0.53733805  0.44290573    -0.80380
O89         O  0.78630404  0.58498078  0.55811729    -0.80400
O90         O  0.71549966  0.58226167  0.48813500    -0.80410
O91         O  0.78512274  0.51336135  0.44316458    -0.80350
O92         O  0.71993297  0.59126319  0.54393836    -0.80480
O93         O  0.74146639  0.47863524  0.41786405    -0.80400
O94         O  0.79289046  0.56988627  0.50051790    -0.80380
O95         O  0.65157137  0.55528910  0.47043813    -0.80420
C96         C  0.66789302  0.54224172  0.44255503     1.09310
C97         C  0.79272105  0.59485198  0.52569277     1.09190
C98         C  0.71107923  0.60367486  0.51347935     1.09330
C99         C  0.76868480  0.49912005  0.41451523     1.09210
O100        O  0.74509453  0.44330959  0.47971675    -0.80380
O101        O  0.72181094  0.53807063  0.57951636    -0.80460
O102        O  0.66243742  0.49162079  0.50834146    -0.80390
O103        O  0.80502470  0.50544243  0.55906964    -0.80370
O104        O  0.75454816  0.52676863  0.58379786    -0.80430
O105        O  0.68466099  0.46537661  0.46110507    -0.80390
O106        O  0.79781662  0.45526595  0.50394333    -0.80350
O107        O  0.66984418  0.54589240  0.54702174    -0.80420
Co108      Co  0.73036155  0.49190579  0.46410212     1.51530
Co109      Co  0.75515272  0.54968171  0.53763456     1.51690
Co110      Co  0.69093371  0.53527026  0.49825859     1.51570
Co111      Co  0.79111742  0.51107069  0.50238595     1.51470
O112        O  0.73394004  0.50920746  0.51444298    -1.42310
C113        C  0.77407742  0.43229009  0.49458065     1.09240
C114        C  0.68652956  0.53742879  0.57673795     1.09330
C115        C  0.66165177  0.46625046  0.48608181     1.09260
C116        C  0.78465231  0.50964378  0.58757529     1.09240
O117        O  0.47527948  0.43649138  0.70260196    -0.80380
O118        O  0.58576510  0.53927025  0.73901212    -0.80400
O119        O  0.56403691  0.47898935  0.68091308    -0.80410
O120        O  0.52143636  0.45937447  0.79217727    -0.80350
O121        O  0.58149239  0.53039707  0.70288992    -0.80480
O122        O  0.46566144  0.45539456  0.77265196    -0.80400
O123        O  0.57417413  0.51119540  0.78962863    -0.80380
O124        O  0.49699450  0.46876351  0.65659475    -0.80420
C125        C  0.48511997  0.43936441  0.67005209     1.09310
C126        C  0.59778653  0.52362591  0.76777470     1.09190
C127        C  0.58902992  0.50117118  0.68498577     1.09330
C128        C  0.49593358  0.43948842  0.78033462     1.09210
O129        O  0.44344502  0.52825558  0.74356509    -0.80380
O130        O  0.53732022  0.57063696  0.67676169    -0.80460
O131        O  0.47622691  0.54411368  0.67622570    -0.80390
O132        O  0.51356437  0.57448998  0.78196305    -0.80370
O133        O  0.54793521  0.59400129  0.73646618    -0.80430
O134        O  0.43911567  0.50007180  0.67838066    -0.80390
O135        O  0.46020098  0.51698410  0.79826159    -0.80350
O136        O  0.53429275  0.52907560  0.63376046    -0.80420
Co137      Co  0.45877627  0.48120111  0.72536334     1.51530
Co138      Co  0.53261674  0.54805314  0.72697611     1.51690
Co139      Co  0.52067999  0.51036521  0.68019752     1.51570
Co140      Co  0.51699278  0.51468645  0.78641540     1.51470
O141        O  0.51168578  0.49936339  0.73011748    -1.42310
C142        C  0.43470350  0.52667857  0.77563428     1.09240
C143        C  0.53910245  0.56148345  0.64343444     1.09330
C144        C  0.44662843  0.53079855  0.66638696     1.09260
C145        C  0.52835528  0.60132417  0.76327452     1.09240
O146        O  0.35876562  0.45427843  0.48652493    -0.80380
O147        O  0.22571134  0.50804502  0.44791387    -0.80400
O148        O  0.27708196  0.43570341  0.53038696    -0.80410
O149        O  0.30874525  0.54028892  0.42433182    -0.80350
O150        O  0.22773458  0.45451434  0.50061592    -0.80480
O151        O  0.32898496  0.48470539  0.43117980    -0.80400
O152        O  0.26805966  0.54529117  0.42963018    -0.80380
O153        O  0.34170675  0.45288339  0.54369081    -0.80420
C154        C  0.35400293  0.43688912  0.51558833     1.09310
C155        C  0.24176199  0.52460372  0.42204516     1.09190
C156        C  0.24900333  0.42869998  0.51250911     1.09330
C157        C  0.32320998  0.51119176  0.41055685     1.09210
O158        O  0.38732780  0.51929156  0.45867540    -0.80380
O159        O  0.24086929  0.50901305  0.56270947    -0.80460
O160        O  0.31473474  0.53024725  0.55652490    -0.80390
O161        O  0.28189541  0.59610543  0.47137725    -0.80370
O162        O  0.23960685  0.56875784  0.50562812    -0.80430
O163        O  0.36324499  0.51825455  0.52522021    -0.80390
O164        O  0.34552694  0.56339486  0.47090741    -0.80350
O165        O  0.28514689  0.47328656  0.58932089    -0.80420
Co166      Co  0.34239361  0.50305578  0.47755875     1.51530
Co167      Co  0.23723291  0.50940766  0.50310506     1.51690
Co168      Co  0.29467214  0.48302969  0.54147834     1.51570
Co169      Co  0.29237441  0.54772692  0.47809704     1.51470
O170        O  0.29263755  0.49664504  0.49188752    -1.42310
C171        C  0.37844291  0.55276465  0.46249996     1.09240
C172        C  0.25719147  0.49430235  0.59203421     1.09330
C173        C  0.34857571  0.53341376  0.55197220     1.09260
C174        C  0.25511333  0.59834519  0.49266320     1.09240
O175        O  0.86332609  0.52482623  0.02048444    -0.80380
O176        O  0.72137601  0.51201092  0.05666737    -0.80400
O177        O  0.78582275  0.57663066  0.99773102    -0.80410
O178        O  0.79999842  0.46524799  0.07686922    -0.80350
O179        O  0.72826071  0.56513696  0.00147534    -0.80480
O180        O  0.85063375  0.45861712  0.04328729    -0.80400
O181        O  0.76888758  0.48214531  0.08148838    -0.80380
O182        O  0.84539158  0.55982420  0.97572339    -0.80420
C183        C  0.86538878  0.55467263  0.00355322     1.09310
C184        C  0.74120218  0.50299111  0.08530535     1.09190
C185        C  0.75395272  0.58778319  0.00231506     1.09330
C186        C  0.83496012  0.46048307  0.07407782     1.09210
O187        O  0.80596453  0.44477747  0.97629747    -0.80380
O188        O  0.74479316  0.51194779  0.94253743    -0.80460
O189        O  0.82627952  0.49530713  0.93933895    -0.80390
O190        O  0.73245095  0.43047148  0.05086997    -0.80370
O191        O  0.72847229  0.45064466  0.99441055    -0.80430
O192        O  0.87415499  0.47088616  0.97113633    -0.80390
O193        O  0.79756294  0.42123761  0.02791735    -0.80350
O194        O  0.78415881  0.55625285  0.92753201    -0.80420
Co195      Co  0.83387980  0.48568521  0.99856843     1.51530
Co196      Co  0.73474299  0.50939836  0.00008569     1.51690
Co197      Co  0.79894709  0.53365446  0.97109600     1.51570
Co198      Co  0.76590105  0.46570039  0.03367306     1.51470
O199        O  0.79116333  0.50714358  0.01647305    -1.42310
C200        C  0.80570007  0.41678568  0.99547134     1.09240
C201        C  0.76057854  0.53299643  0.91817469     1.09330
C202        C  0.85796924  0.47791074  0.94091315     1.09260
C203        C  0.72558100  0.42371050  0.01802533     1.09240
O204        O  0.96837700  0.44200786  0.80999668    -0.80380
O205        O  0.04691891  0.60594283  0.76491916    -0.80400
O206        O  0.99783013  0.54510876  0.84810872    -0.80410
O207        O  0.96167201  0.52163753  0.71738307    -0.80350
O208        O  0.98634116  0.58015037  0.79952504    -0.80480
O209        O  0.95432822  0.47064956  0.74694929    -0.80400
O210        O  0.01837503  0.57501261  0.71958853    -0.80380
O211        O  0.96035362  0.49635752  0.82580293    -0.80420
C212        C  0.94896837  0.46490808  0.82558991     1.09310
C213        C  0.02992012  0.60555270  0.73465441     1.09190
C214        C  0.98030191  0.57174155  0.83257080     1.09330
C215        C  0.94043636  0.49845132  0.73122167     1.09210
O216        O  0.00218004  0.41746286  0.75908541    -0.80380
O217        O  0.05804869  0.56749209  0.82765747    -0.80460
O218        O  0.02248230  0.46980405  0.86246266    -0.80390
O219        O  0.07255104  0.50791351  0.72153231    -0.80370
O220        O  0.08271692  0.54585565  0.76470632    -0.80430
O221        O  0.04368724  0.44801355  0.80928247    -0.80390
O222        O  0.01863028  0.45526168  0.71356071    -0.80350
O223        O  0.06756349  0.50980455  0.82457797    -0.80420
Co224      Co  0.00210055  0.46298349  0.77388135     1.51530
Co225      Co  0.03303942  0.56141080  0.77934232     1.51690
Co226      Co  0.01410884  0.50049711  0.82272384     1.51570
Co227      Co  0.01702806  0.51514370  0.72096101     1.51470
O228        O  0.00868483  0.51597480  0.77621922    -1.42310
C229        C  0.01409810  0.42210224  0.72768163     1.09240
C230        C  0.07523720  0.53936135  0.83888902     1.09330
C231        C  0.03990894  0.44530032  0.84431290     1.09260
C232        C  0.09482297  0.52409885  0.74185716     1.09240
O233        O  0.20636030  0.48676113  0.94309622    -0.80380
O234        O  0.25290620  0.58699277  0.01880716    -0.80400
O235        O  0.17426368  0.54098183  0.01550816    -0.80410
O236        O  0.29991570  0.50604439  0.94745900    -0.80350
O237        O  0.21740113  0.58152361  0.02421472    -0.80480
O238        O  0.24404046  0.48845811  0.93210140    -0.80400
O239        O  0.30534878  0.56315670  0.99902144    -0.80380
O240        O  0.16933264  0.50777512  0.98604366    -0.80420
C241        C  0.17601830  0.50226233  0.95238759     1.09310
C242        C  0.28341082  0.59127631  0.00350680     1.09190
C243        C  0.18467915  0.57362736  0.01347077     1.09330
C244        C  0.27509955  0.50019486  0.92296802     1.09210
O245        O  0.25602731  0.42737942  0.96135100    -0.80380
O246        O  0.21247013  0.54246460  0.07931787    -0.80460
O247        O  0.17244569  0.46835860  0.04618879    -0.80390
O248        O  0.29440931  0.50584602  0.06323182    -0.80370
O249        O  0.27726248  0.56183773  0.08042051    -0.80430
O250        O  0.19703953  0.44168039  0.99778959    -0.80390
O251        O  0.29088040  0.44672176  0.00744477    -0.80350
O252        O  0.17854511  0.49437217  0.06911854    -0.80420
Co253      Co  0.24263792  0.47092931  0.98133005     1.51530
Co254      Co  0.25277590  0.54062720  0.04136726     1.51690
Co255      Co  0.20761103  0.49924702  0.02615206     1.51570
Co256      Co  0.29548643  0.50629843  0.00394307     1.51470
O257        O  0.24084462  0.51817018  0.99810886    -1.42310
C258        C  0.27728340  0.42009095  0.98781965     1.09240
C259        C  0.18892659  0.51965647  0.08989699     1.09330
C260        C  0.17352816  0.44244356  0.02385395     1.09260
C261        C  0.28826089  0.52979143  0.08905093     1.09240
O262        O  0.94755798  0.53731651  0.17716616    -0.80380
O263        O  0.02855026  0.42970696  0.24001171    -0.80400
O264        O  0.01166711  0.47380837  0.15600844    -0.80410
O265        O  0.95365522  0.50495972  0.29037198    -0.80350
O266        O  0.05946895  0.44878897  0.18634286    -0.80480
O267        O  0.93621529  0.51990666  0.23598100    -0.80400
O268        O  0.00589367  0.44715645  0.29138631    -0.80380
O269        O  0.97928397  0.49163397  0.15537962    -0.80420
C270        C  0.94860587  0.50807758  0.15876106     1.09310
C271        C  0.01302884  0.42157614  0.26855052     1.09190
C272        C  0.03539533  0.44790005  0.16113456     1.09330
C273        C  0.92819692  0.50972255  0.26683002     1.09210
O274        O  0.96234188  0.58621082  0.23812427    -0.80380
O275        O  0.07613028  0.52163746  0.22201391    -0.80460
O276        O  0.01442437  0.55059248  0.13988074    -0.80390
O277        O  0.06960284  0.50155908  0.28500199    -0.80370
O278        O  0.09418722  0.45561181  0.25310567    -0.80430
O279        O  0.02116471  0.57279688  0.19522635    -0.80390
O280        O  0.00960705  0.56324726  0.27352605    -0.80350
O281        O  0.06542480  0.51222995  0.16659341    -0.80420
Co282      Co  0.98071526  0.54230347  0.22143018     1.51530
Co283      Co  0.05080403  0.47483742  0.23302800     1.51690
Co284      Co  0.01343822  0.52030789  0.18111046     1.51570
Co285      Co  0.00944241  0.50392567  0.28086323     1.51470
O286        O  0.00435563  0.49443396  0.22434768    -1.42310
C287        C  0.98940356  0.59113362  0.25984854     1.09240
C288        C  0.08751994  0.52168759  0.19052063     1.09330
C289        C  0.02649259  0.57484762  0.16051790     1.09260
C290        C  0.09824633  0.48073363  0.27570947     1.09240
O291        O  0.01197466  0.31824733  0.95053281    -0.80380
O292        O  0.05462417  0.27892551  0.99472004    -0.80400
O293        O  0.03537314  0.34302783  0.01247183    -0.80410
O294        O  0.00214521  0.22483960  0.93922840    -0.80350
O295        O  0.06352186  0.31367637  0.05843692    -0.80480
O296        O  0.97744456  0.27377335  0.90907081    -0.80400
O297        O  0.05233960  0.22113152  0.00285140    -0.80380
O298        O  0.98141744  0.36786888  0.96948773    -0.80420
C299        C  0.00367743  0.35230058  0.94724389     1.09310
C300        C  0.07125189  0.24905616  0.99616775     1.09190
C301        C  0.06158411  0.34006849  0.03637125     1.09330
C302        C  0.99560925  0.24430098  0.90851433     1.09210
O303        O  0.93195245  0.24770014  0.95425893    -0.80380
O304        O  0.99405307  0.30627992  0.07876449    -0.80460
O305        O  0.92902506  0.32014410  0.00073911    -0.80390
O306        O  0.99077513  0.21416063  0.05619218    -0.80370
O307        O  0.03831232  0.24697680  0.06522746    -0.80430
O308        O  0.93343596  0.31471489  0.94425910    -0.80390
O309        O  0.94020653  0.21355361  0.00129796    -0.80350
O310        O  0.96747332  0.34946662  0.04608255    -0.80420
Co311      Co  0.97482533  0.27958363  0.95694082     1.51530
Co312      Co  0.02370946  0.29081657  0.03687360     1.51690
Co313      Co  0.98156877  0.32628277  0.00157197     1.51570
Co314      Co  0.99541348  0.22059714  0.00009329     1.51470
O315        O  0.98190819  0.27434339  0.01137466    -1.42310
C316        C  0.91830553  0.22953431  0.97923236     1.09240
C317        C  0.98001838  0.33800427  0.07618538     1.09330
C318        C  0.91355735  0.32135603  0.97078994     1.09260
C319        C  0.01273987  0.22912313  0.07865570     1.09240
O320        O  0.04879228  0.71055901  0.06671099    -0.80380
O321        O  0.08298715  0.75203858  0.95351019    -0.80400
O322        O  0.07232175  0.67421405  0.98695961    -0.80410
O323        O  0.01811005  0.79022991  0.05541483    -0.80350
O324        O  0.06724076  0.68740411  0.93120209    -0.80480
O325        O  0.98830717  0.74791776  0.08917037    -0.80400
O326        O  0.07611338  0.78665523  0.00113707    -0.80380
O327        O  0.03608581  0.65911131  0.03866691    -0.80420
C328        C  0.05218608  0.67631824  0.06429879     1.09310
C329        C  0.09702738  0.77087574  0.97838046     1.09190
C330        C  0.08477868  0.67142470  0.95602967     1.09330
C331        C  0.00542274  0.77737027  0.08690065     1.09210
O332        O  0.95419364  0.74664134  0.02987318    -0.80380
O333        O  0.99045426  0.69513297  0.93828128    -0.80460
O334        O  0.96579181  0.68453904  0.00175738    -0.80390
O335        O  0.02255906  0.79001408  0.93573735    -0.80370
O336        O  0.03292507  0.74043448  0.90146888    -0.80430
O337        O  0.97679355  0.68411347  0.05873102    -0.80390
O338        O  0.96566922  0.78557446  0.98721519    -0.80350
O339        O  0.00803440  0.64083560  0.96339553    -0.80420
Co340      Co  0.00287913  0.73069995  0.04651898     1.51530
Co341      Co  0.03407381  0.72764972  0.94851255     1.51690
Co342      Co  0.01943595  0.68169603  0.99115736     1.51570
Co343      Co  0.02097600  0.78480826  0.99561280     1.51470
O344        O  0.02810617  0.72891776  0.00130422    -1.42310
C345        C  0.94294516  0.76739223  0.00515591     1.09240
C346        C  0.98955490  0.65975136  0.93930341     1.09330
C347        C  0.95829141  0.67233078  0.03260471     1.09260
C348        C  0.02600147  0.77391540  0.90376503     1.09240
O349        O  0.58754455  0.80702371  0.97678448    -0.80380
O350        O  0.49633312  0.75550124  0.07603033    -0.80400
O351        O  0.50208338  0.83726852  0.03921864    -0.80410
O352        O  0.58370311  0.71519378  0.00006059    -0.80350
O353        O  0.48531996  0.78924243  0.07104381    -0.80480
O354        O  0.59817538  0.77110787  0.98337632    -0.80400
O355        O  0.52978593  0.70888146  0.05667094    -0.80380
O356        O  0.54491231  0.84453810  0.99809078    -0.80420
C357        C  0.57801024  0.83824060  0.98945269     1.09310
C358        C  0.51810591  0.72909076  0.08314095     1.09190
C359        C  0.49325043  0.82260340  0.06909653     1.09330
C360        C  0.60821821  0.73973047  0.99447185     1.09210
O361        O  0.57048479  0.75442297  0.92130432    -0.80380
O362        O  0.44145008  0.80258841  0.01959392    -0.80460
O363        O  0.48920586  0.84606049  0.95708448    -0.80390
O364        O  0.46501653  0.71741439  0.99383718    -0.80370
O365        O  0.43951653  0.73660078  0.04448351    -0.80430
O366        O  0.53412694  0.81281356  0.93221114    -0.80390
O367        O  0.52132598  0.72549866  0.94082679    -0.80350
O368        O  0.46481543  0.84309889  0.98110112    -0.80420
Co369      Co  0.54921570  0.76946816  0.96502683     1.51530
Co370      Co  0.48036915  0.76004306  0.02678798     1.51690
Co371      Co  0.50409745  0.81020164  0.99241024     1.51570
Co372      Co  0.52543149  0.71896021  0.99942934     1.51470
O373        O  0.52869631  0.77319754  0.01191153    -1.42310
C374        C  0.54142976  0.73782055  0.91409607     1.09240
C375        C  0.43848001  0.83225241  0.00065997     1.09330
C376        C  0.51027041  0.83896936  0.93042104     1.09260
C377        C  0.43550463  0.72387277  0.01347633     1.09240
O378        O  0.53525130  0.01419205  0.83666965    -0.80380
O379        O  0.51659056  0.08098646  0.70359153    -0.80400
O380        O  0.58853605  0.00566189  0.76280865    -0.80410
O381        O  0.48334324  0.09650590  0.79086979    -0.80350
O382        O  0.57165172  0.02315578  0.70740529    -0.80480
O383        O  0.49479523  0.05567808  0.83445274    -0.80400
O384        O  0.49596136  0.10333748  0.75539319    -0.80380
O385        O  0.57800047  0.99851223  0.79697753    -0.80420
C386        C  0.56885937  0.00903071  0.82875804     1.09310
C387        C  0.51134899  0.10833905  0.72525896     1.09190
C388        C  0.59720706  0.01771978  0.73195385     1.09330
C389        C  0.49034117  0.08881396  0.82451495     1.09210
O390        O  0.45338192  0.00002509  0.83033247    -0.80380
O391        O  0.50965765  0.96413640  0.71756006    -0.80460
O392        O  0.52664151  0.95336227  0.80074887    -0.80390
O393        O  0.43478353  0.07889826  0.72962830    -0.80370
O394        O  0.45384865  0.02338777  0.71398726    -0.80430
O395        O  0.47910229  0.97452366  0.83267810    -0.80390
O396        O  0.43634808  0.04541344  0.79244709    -0.80350
O397        O  0.56290945  0.94607179  0.74150063    -0.80420
Co398      Co  0.49400773  0.01278184  0.80108252     1.51530
Co399      Co  0.51358206  0.02391696  0.71291375     1.51690
Co400      Co  0.54005523  0.98830861  0.75919798     1.51570
Co401      Co  0.47529009  0.05676719  0.75408197     1.51470
O402        O  0.51999227  0.03447552  0.76752248    -1.42310
C403        C  0.42889921  0.02232915  0.81750429     1.09240
C404        C  0.53255617  0.93746693  0.72800876     1.09330
C405        C  0.50217785  0.94902004  0.82517146     1.09260
C406        C  0.42694328  0.04708309  0.71999149     1.09240
O407        O  0.47034585  0.22316192  0.93801277    -0.80380
O408        O  0.52424503  0.22102867  0.08725628    -0.80400
O409        O  0.55143694  0.21464146  0.97520967    -0.80410
O410        O  0.42433788  0.21122426  0.01379544    -0.80350
O411        O  0.57011769  0.22459557  0.03244317    -0.80480
O412        O  0.43993084  0.22799999  0.95797983    -0.80400
O413        O  0.47611700  0.19419460  0.06293604    -0.80380
O414        O  0.52620657  0.20802766  0.95141195    -0.80420
C415        C  0.49771407  0.20115514  0.93312643     1.09310
C416        C  0.50600777  0.19260537  0.08087648     1.09190
C417        C  0.57248193  0.20752386  0.00313948     1.09330
C418        C  0.42059029  0.20896052  0.98017304     1.09210
O419        O  0.42176366  0.28384873  0.97622543    -0.80380
O420        O  0.56262392  0.29986945  0.02382153    -0.80460
O421        O  0.52669215  0.27120073  0.91717134    -0.80390
O422        O  0.46615138  0.26270533  0.09406346    -0.80370
O423        O  0.50894660  0.29916959  0.07697073    -0.80430
O424        O  0.46914021  0.29062846  0.91797858    -0.80390
O425        O  0.42390103  0.28521031  0.03525765    -0.80350
O426        O  0.56825906  0.27437121  0.97177281    -0.80420
Co427      Co  0.47495340  0.27053232  0.96800987     1.51530
Co428      Co  0.53824019  0.26135448  0.05271065     1.51690
Co429      Co  0.51693226  0.25906707  0.96807333     1.51570
Co430      Co  0.45042446  0.23950893  0.04886874     1.51470
O431        O  0.49559412  0.24941017  0.01745056    -1.42310
C432        C  0.40516702  0.28617462  0.00624868     1.09240
C433        C  0.58307060  0.28993915  0.99789261     1.09330
C434        C  0.49866339  0.28448990  0.90013758     1.09260
C435        C  0.48845857  0.28714638  0.10133947     1.09240
O436        O  0.48818884  0.95539699  0.14296270    -0.80380
O437        O  0.45368601  0.00383504  0.28454286    -0.80400
O438        O  0.55801711  0.94684215  0.25782142    -0.80410
O439        O  0.45194612  0.05469825  0.18460575    -0.80350
O440        O  0.50712153  0.95199989  0.28560581    -0.80480
O441        O  0.44471757  0.99560741  0.18772097    -0.80400
O442        O  0.44471972  0.05212212  0.25126397    -0.80380
O443        O  0.50977179  0.93377704  0.19734697    -0.80420
C444        C  0.49430439  0.92925990  0.16593187     1.09310
C445        C  0.43175168  0.02594926  0.26846602     1.09190
C446        C  0.53217864  0.93124749  0.27268553     1.09330
C447        C  0.43333662  0.02680632  0.17693174     1.09210
O448        O  0.50222877  0.03239100  0.14737835    -0.80380
O449        O  0.56632884  0.01121538  0.28391693    -0.80460
O450        O  0.58283625  0.94550390  0.19353759    -0.80390
O451        O  0.48812219  0.10178355  0.23159388    -0.80370
O452        O  0.50828353  0.06891909  0.28202218    -0.80430
O453        O  0.55119280  0.98609319  0.16076101    -0.80390
O454        O  0.53210833  0.06111213  0.18970185    -0.80350
O455        O  0.57829564  0.01245241  0.22544069    -0.80420
Co456      Co  0.49736580  0.98790339  0.17933055     1.51530
Co457      Co  0.50876749  0.00854460  0.28250860     1.51690
Co458      Co  0.54419070  0.97394926  0.21347891     1.51570
Co459      Co  0.49144294  0.05422930  0.22352762     1.51470
O460        O  0.50415662  0.00514938  0.22836877    -1.42310
C461        C  0.52247262  0.05861244  0.15672394     1.09240
C462        C  0.58884080  0.01655553  0.25756837     1.09330
C463        C  0.58081439  0.96730092  0.16711884     1.09260
C464        C  0.50091879  0.10026278  0.26402585     1.09240
O465        O  0.33815928  0.97577829  0.04293788    -0.80380
O466        O  0.25932776  0.09358658  0.97455674    -0.80400
O467        O  0.34673142  0.05985808  0.95703662    -0.80410
O468        O  0.22210992  0.01125430  0.05005517    -0.80350
O469        O  0.29273753  0.09067289  0.96031233    -0.80480
O470        O  0.27742596  0.99325010  0.06414681    -0.80400
O471        O  0.21228282  0.06545355  0.99830155    -0.80380
O472        O  0.35311795  0.02732056  0.02036116    -0.80420
C473        C  0.35431191  0.00516118  0.04660998     1.09310
C474        C  0.23053014  0.09503718  0.99315843     1.09190
C475        C  0.32830799  0.08982320  0.95805018     1.09330
C476        C  0.24721115  0.00552602  0.07393679     1.09210
O477        O  0.28297245  0.92935747  0.03261608    -0.80380
O478        O  0.29218798  0.05281173  0.91266873    -0.80460
O479        O  0.36980905  0.98263197  0.96240503    -0.80390
O480        O  0.22605953  0.00649350  0.93569842    -0.80370
O481        O  0.22609947  0.06426664  0.91779571    -0.80430
O482        O  0.31697279  0.95418518  0.97306111    -0.80390
O483        O  0.23859392  0.95035498  0.99404790    -0.80350
O484        O  0.30702997  0.99859079  0.92637128    -0.80420
Co485      Co  0.29099795  0.97621705  0.01667447     1.51530
Co486      Co  0.25979932  0.04683759  0.95463788     1.51690
Co487      Co  0.32883727  0.01196780  0.97470121     1.51570
Co488      Co  0.22851598  0.00942275  0.99437462     1.51470
O489        O  0.28399597  0.02598155  0.99632556    -1.42310
C490        C  0.25689324  0.92311848  0.01070855     1.09240
C491        C  0.30678498  0.02370461  0.90337738     1.09330
C492        C  0.35225162  0.95335466  0.96872170     1.09260
C493        C  0.22312138  0.03101670  0.90950215     1.09240
O494        O  0.70540943  0.95744974  0.98610448    -0.80380
O495        O  0.74323640  0.00211062  0.93599382    -0.80400
O496        O  0.67324466  0.03008708  0.96223409    -0.80410
O497        O  0.79623288  0.95102121  0.99959731    -0.80350
O498        O  0.70448822  0.06510861  0.92474837    -0.80480
O499        O  0.75223317  0.91971407  0.03109804    -0.80400
O500        O  0.80130600  0.01068508  0.94684790    -0.80380
O501        O  0.66389859  0.98815285  0.01636141    -0.80420
C502        C  0.67275821  0.96061683  0.99748314     1.09310
C503        C  0.77532380  0.00332089  0.92440745     1.09190
C504        C  0.67665420  0.04668647  0.93161419     1.09330
C505        C  0.77866302  0.92037903  0.00852310     1.09210
O506        O  0.77494713  0.96905685  0.06758060    -0.80380
O507        O  0.70514073  0.08610690  0.99483783    -0.80460
O508        O  0.70494395  0.03144336  0.06695990    -0.80390
O509        O  0.80064531  0.06757385  0.00571973    -0.80370
O510        O  0.76950036  0.07314847  0.95570385    -0.80430
O511        O  0.70815701  0.97143888  0.06392480    -0.80390
O512        O  0.80203144  0.01851609  0.05873572    -0.80350
O513        O  0.65392550  0.06424836  0.02087231    -0.80420
Co514      Co  0.74327670  0.96709808  0.02356306     1.51530
Co515      Co  0.72680604  0.04282655  0.96606252     1.51690
Co516      Co  0.69396296  0.03326104  0.01493516     1.51570
Co517      Co  0.79907369  0.01174736  0.00353911     1.51470
O518        O  0.74440882  0.01619414  0.00860511    -1.42310
C519        C  0.78806957  0.99672004  0.08093680     1.09240
C520        C  0.67245903  0.09050273  0.00804566     1.09330
C521        C  0.69988396  0.00035214  0.08100885     1.09260
C522        C  0.78433879  0.08830253  0.98224814     1.09240
O523        O  0.94430252  0.80080796  0.52022505    -0.80380
O524        O  0.02950916  0.76574483  0.41761371    -0.80400
O525        O  0.01450074  0.83990332  0.46894644    -0.80410
O526        O  0.95630205  0.71166918  0.49253336    -0.80350
O527        O  0.03267946  0.80160508  0.42622654    -0.80480
O528        O  0.93622230  0.76567860  0.51147155    -0.80400
O529        O  0.01288200  0.71137682  0.43736752    -0.80380
O530        O  0.98641925  0.83980956  0.50297257    -0.80420
C531        C  0.95301927  0.83287935  0.50978761     1.09310
C532        C  0.01692892  0.73481323  0.41105884     1.09190
C533        C  0.01832859  0.83248700  0.43531626     1.09330
C534        C  0.92942490  0.73533842  0.49772393     1.09210
O535        O  0.96263653  0.74273436  0.57211127    -0.80380
O536        O  0.08269289  0.81152999  0.46877055    -0.80460
O537        O  0.04279658  0.83368679  0.54646526    -0.80390
O538        O  0.07487861  0.72401653  0.49666903    -0.80370
O539        O  0.09243786  0.74738914  0.44343850    -0.80430
O540        O  0.99458368  0.80457222  0.56723951    -0.80390
O541        O  0.01740014  0.72174857  0.55353226    -0.80350
O542        O  0.06470309  0.83588666  0.52034048    -0.80420
Co543      Co  0.98415166  0.76319139  0.53122802     1.51530
Co544      Co  0.05019328  0.76606325  0.46499962     1.51690
Co545      Co  0.02770636  0.80337287  0.50843247     1.51570
Co546      Co  0.01457154  0.71859684  0.49423704     1.51470
O547        O  0.00359510  0.77183985  0.48536226    -1.42310
C548        C  0.99438107  0.73008312  0.57984502     1.09240
C549        C  0.08630460  0.83536020  0.49358611     1.09330
C550        C  0.01978741  0.82798435  0.57144618     1.09260
C551        C  0.10118264  0.73487844  0.47461368     1.09240
O552        O  0.81259810  0.94131256  0.47772238    -0.80380
O553        O  0.77471984  0.03241727  0.57935970    -0.80400
O554        O  0.85496258  0.01949683  0.53675067    -0.80410
O555        O  0.72327564  0.95356009  0.50529129    -0.80350
O556        O  0.80944723  0.03849842  0.57160595    -0.80480
O557        O  0.77786904  0.93409055  0.48702313    -0.80400
O558        O  0.72260133  0.00908560  0.56068549    -0.80380
O559        O  0.85578604  0.97946372  0.49289253    -0.80420
C560        C  0.84588746  0.94731354  0.48718579     1.09310
C561        C  0.74530875  0.01672873  0.58699656     1.09190
C562        C  0.84237419  0.02612415  0.56811735     1.09330
C563        C  0.74701065  0.92701207  0.50016142     1.09210
O564        O  0.75610319  0.96109251  0.42585635    -0.80380
O565        O  0.81829503  0.08372181  0.51893165    -0.80460
O566        O  0.85646116  0.03540160  0.45267860    -0.80390
O567        O  0.73100314  0.07099981  0.49867014    -0.80370
O568        O  0.75576783  0.09144212  0.54932653    -0.80430
O569        O  0.81591086  0.99613836  0.43201772    -0.80390
O570        O  0.73237599  0.01392113  0.44304264    -0.80350
O571        O  0.85764789  0.05933101  0.47957636    -0.80420
Co572      Co  0.77567492  0.98207581  0.46755438     1.51530
Co573      Co  0.77568194  0.04910133  0.52996972     1.51690
Co574      Co  0.82340677  0.02347731  0.49151417     1.51570
Co575      Co  0.72999789  0.01110231  0.50299142     1.51470
O576        O  0.78576895  0.00197525  0.51284996    -1.42310
C577        C  0.74143716  0.99125588  0.41684718     1.09240
C578        C  0.84644376  0.08637772  0.49826277     1.09330
C579        C  0.84329366  0.01671010  0.42674601     1.09260
C580        C  0.73994132  0.09839447  0.51956965     1.09240
O581        O  0.21867054  0.99202387  0.43242706    -0.80380
O582        O  0.25963249  0.09265721  0.51248234    -0.80400
O583        O  0.18426873  0.04254047  0.50608266    -0.80410
O584        O  0.30925219  0.01677705  0.43507275    -0.80350
O585        O  0.22483948  0.08453539  0.51954860    -0.80480
O586        O  0.25390685  0.99735217  0.42007346    -0.80400
O587        O  0.31290462  0.07333670  0.49009521    -0.80380
O588        O  0.18198362  0.01041965  0.47708919    -0.80420
C589        C  0.18717002  0.00415947  0.44342601     1.09310
C590        C  0.28929931  0.09963204  0.49676398     1.09190
C591        C  0.19238755  0.07599337  0.50888239     1.09330
C592        C  0.28397049  0.01082875  0.41043608     1.09210
O593        O  0.27675612  0.93573030  0.44741061    -0.80380
O594        O  0.22057586  0.04173868  0.56963643    -0.80460
O595        O  0.18996138  0.96516228  0.53173343    -0.80390
O596        O  0.30650638  0.01360425  0.55307065    -0.80370
O597        O  0.28477411  0.06718796  0.57282418    -0.80430
O598        O  0.21661824  0.94624383  0.48110482    -0.80390
O599        O  0.30433723  0.95642280  0.49737533    -0.80350
O600        O  0.19117135  0.99143247  0.55624403    -0.80420
Co601      Co  0.25939753  0.97885391  0.46843412     1.51530
Co602      Co  0.26264530  0.04539491  0.53292367     1.51690
Co603      Co  0.22115661  0.00214450  0.51537175     1.51570
Co604      Co  0.30667592  0.01587716  0.49322963     1.51470
O605        O  0.25206415  0.02477459  0.48808803    -1.42310
C606        C  0.29345540  0.92915566  0.47718738     1.09240
C607        C  0.19673605  0.01791494  0.57728571     1.09330
C608        C  0.19293416  0.94230507  0.50624916     1.09260
C609        C  0.29812942  0.03577435  0.58000870     1.09240
O610        O  0.98520826  0.21984704  0.56451560    -0.80380
O611        O  0.09108218  0.25279852  0.47914363    -0.80400
O612        O  0.05211537  0.17740665  0.49605151    -0.80410
O613        O  0.01800690  0.30470591  0.55551036    -0.80350
O614        O  0.08548302  0.21775967  0.46824856    -0.80480
O615        O  0.99707986  0.25181376  0.57370778    -0.80400
O616        O  0.07130991  0.30518598  0.50005913    -0.80380
O617        O  0.98843426  0.17320238  0.52544089    -0.80420
C618        C  0.98617562  0.18551877  0.55777981     1.09310
C619        C  0.09804714  0.28222586  0.49426364     1.09190
C620        C  0.08224355  0.18613839  0.48297126     1.09330
C621        C  0.01303073  0.28081036  0.58141910     1.09210
O622        O  0.93652164  0.28444364  0.54999383    -0.80380
O623        O  0.02739840  0.21343746  0.42553596    -0.80460
O624        O  0.95621387  0.21796302  0.46549387    -0.80390
O625        O  0.00907594  0.29688895  0.43851375    -0.80370
O626        O  0.06227254  0.27445688  0.41835044    -0.80430
O627        O  0.93799214  0.22332185  0.52010672    -0.80390
O628        O  0.95385485  0.30043669  0.49475016    -0.80350
O629        O  0.00164838  0.16326621  0.44822120    -0.80420
Co630      Co  0.97627224  0.25962191  0.52716037     1.51530
Co631      Co  0.04199018  0.25384335  0.46024624     1.51690
Co632      Co  0.00607577  0.20030158  0.48145015     1.51570
Co633      Co  0.01368789  0.29897587  0.49770294     1.51470
O634        O  0.01951734  0.24282480  0.50552945    -1.42310
C635        C  0.92762733  0.29565839  0.51843919     1.09240
C636        C  0.01320241  0.18215796  0.42159027     1.09330
C637        C  0.93211613  0.21192796  0.48893075     1.09260
C638        C  0.03075030  0.28806457  0.41138010     1.09240
O639        O  0.97936477  0.97584098  0.34256292    -0.80380
O640        O  0.06942760  0.00219679  0.20887844    -0.80400
O641        O  0.99460419  0.92790132  0.26333917    -0.80410
O642        O  0.06981927  0.04946142  0.31662392    -0.80350
O643        O  0.01552727  0.94779117  0.21087889    -0.80480
O644        O  0.04062802  0.00761201  0.34442410    -0.80400
O645        O  0.08635212  0.01347914  0.26360343    -0.80380
O646        O  0.98237096  0.93678792  0.29604720    -0.80420
C647        C  0.98223598  0.94334100  0.33050579     1.09310
C648        C  0.09487777  0.00390738  0.23279303     1.09190
C649        C  0.01029233  0.92112461  0.23379988     1.09330
C650        C  0.06826102  0.02712426  0.34239018     1.09210
O651        O  0.98423329  0.05746796  0.34754860    -0.80380
O652        O  0.95375232  0.01050005  0.21655256    -0.80460
O653        O  0.93283767  0.97650820  0.29060743    -0.80390
O654        O  0.06247144  0.08254567  0.25111226    -0.80370
O655        O  0.01320456  0.06460431  0.21990783    -0.80430
O656        O  0.94725284  0.03152480  0.29149940    -0.80390
O657        O  0.99930948  0.07367527  0.29039575    -0.80350
O658        O  0.93605733  0.95439380  0.22803010    -0.80420
Co659      Co  0.99593783  0.01994597  0.31543690     1.51530
Co660      Co  0.01314146  0.00549264  0.21812707     1.51690
Co661      Co  0.97427972  0.97490903  0.25636441     1.51570
Co662      Co  0.04189344  0.04128359  0.27165501     1.51470
O663        O  0.01685711  0.99584557  0.27556037    -1.42310
C664        C  0.99157965  0.08187852  0.32346464     1.09240
C665        C  0.92745798  0.98683724  0.21857561     1.09330
C666        C  0.92415020  0.00810251  0.29901008     1.09260
C667        C  0.03508065  0.09057980  0.23078908     1.09240
O668        O  0.07955640  0.99199093  0.70045969    -0.80380
O669        O  0.99370766  0.09491476  0.73935260    -0.80400
O670        O  0.98072574  0.05126882  0.65888366    -0.80410
O671        O  0.07314232  0.01663090  0.78772589    -0.80350
O672        O  0.97876698  0.08858344  0.70671113    -0.80480
O673        O  0.08731778  0.99402939  0.73489746    -0.80400
O674        O  0.01987352  0.07315298  0.78998798    -0.80380
O675        O  0.04843533  0.02486149  0.65989715    -0.80420
C676        C  0.07855978  0.01147478  0.67127173     1.09310
C677        C  0.01292556  0.10007981  0.76751181     1.09190
C678        C  0.97821067  0.08299842  0.67216911     1.09330
C679        C  0.09751633  0.00838708  0.76395235     1.09210
O680        O  0.05831623  0.93616730  0.74821887    -0.80380
O681        O  0.93381838  0.04081552  0.70890373    -0.80460
O682        O  0.99632808  0.97890744  0.64034491    -0.80390
O683        O  0.95611335  0.01494521  0.78597879    -0.80370
O684        O  0.93517079  0.07052958  0.77131533    -0.80430
O685        O  0.02634477  0.95128549  0.68714452    -0.80390
O686        O  0.01146956  0.95748042  0.78039188    -0.80350
O687        O  0.95602698  0.98750156  0.69925237    -0.80420
Co688      Co  0.03693227  0.97984106  0.73309989     1.51530
Co689      Co  0.97357552  0.04853502  0.74463049     1.51690
Co690      Co  0.00313257  0.00682940  0.68152931     1.51570
Co691      Co  0.01545369  0.01636338  0.78285439     1.51470
O692        O  0.01656455  0.02704866  0.72670392    -1.42310
C693        C  0.03128483  0.93008998  0.76788380     1.09240
C694        C  0.92988434  0.01019324  0.69526089     1.09330
C695        C  0.01177314  0.95104992  0.65519623     1.09260
C696        C  0.92865759  0.03858717  0.78225954     1.09240
C697        C  0.00311629  0.24360330  0.26118460     0.00320
C698        C  0.99831042  0.26895124  0.23339658     0.00320
C699        C  0.74695249  0.01788100  0.23453803     0.00320
C700        C  0.77428043  0.01453827  0.26091554     0.00320
C701        C  0.02172412  0.74364320  0.23289848     0.00320
C702        C  0.02239787  0.76773641  0.26091835     0.00320
C703        C  0.27719563  0.01229669  0.22909741     0.00320
C704        C  0.25129954  0.01050688  0.25610365     0.00320
C705        C  0.25277217  0.25061591  0.50319672     0.00320
C706        C  0.28016811  0.27555813  0.50320199     0.00320
C707        C  0.74834345  0.27684559  0.49393560     0.00320
C708        C  0.77630099  0.25074736  0.49357956     0.00320
C709        C  0.27848209  0.75009885  0.50896697     0.00320
C710        C  0.25303365  0.77862318  0.50693576     0.00320
C711        C  0.25157062  0.01141288  0.73059456     0.00320
C712        C  0.27556211  0.01302822  0.75982684     0.00320
C713        C  0.22832499  0.27434366  0.01209935     0.00320
C714        C  0.25253487  0.24508466  0.01382124     0.00320
C715        C  0.25622660  0.74401261  0.98196232     0.00320
C716        C  0.28332322  0.76948855  0.98287172     0.00320
C717        C  0.53126051  0.77723711  0.23032909     0.00320
C718        C  0.53037595  0.75259269  0.25874852     0.00320
C719        C  0.52025447  0.25029254  0.24751448     0.00320
C720        C  0.52352199  0.27625048  0.27337137     0.00320
C721        C  0.51251791  0.26073377  0.74873857     0.00320
C722        C  0.51273617  0.28993102  0.72547706     0.00320
C723        C  0.03373183  0.27638106  0.75950775     0.00320
C724        C  0.03601060  0.24936127  0.73411887     0.00320
C725        C  0.76251241  0.26854684  0.99564114     0.00320
C726        C  0.73671714  0.24196559  0.99802846     0.00320
C727        C  0.27543220  0.50782568  0.26922300     0.00320
C728        C  0.24950281  0.50446396  0.24206881     0.00320
C729        C  0.74695315  0.52328997  0.26170722     0.00320
C730        C  0.77374447  0.52009918  0.23590497     0.00320
C731        C  0.27910269  0.51980796  0.74385834     0.00320
C732        C  0.25225947  0.51712860  0.76945376     0.00320
C733        C  0.01110804  0.78186448  0.72707556     0.00320
C734        C  0.01252513  0.75626291  0.75454224     0.00320
C735        C  0.74995618  0.01066183  0.76760410     0.00320
C736        C  0.77691398  0.01018915  0.74168902     0.00320
C737        C  0.76254945  0.76697395  0.98737458     0.00320
C738        C  0.78834632  0.73891509  0.99208177     0.00320
C739        C  0.75582929  0.50525983  0.73916079     0.00320
C740        C  0.78333469  0.50854592  0.76482491     0.00320
C741        C  0.74902342  0.74854680  0.50000212     0.00320
C742        C  0.77643058  0.77323645  0.49633274     0.00320
C743        C  0.50326299  0.75698035  0.73689202     0.00320
C744        C  0.50741852  0.78212914  0.76415544     0.00320
C745        C  0.84170626  0.98662282  0.75879391    -0.21550
C746        C  0.81615875  0.01576919  0.75347946    -0.09590
C747        C  0.82692332  0.05077484  0.76308841     0.29270
C748        C  0.86211564  0.05663866  0.77724982    -0.21550
C749        C  0.88886106  0.02821627  0.78053689    -0.09600
C750        C  0.87786349  0.99273993  0.77174786     0.29270
F751        F  0.90251877  0.96440030  0.77346461    -0.20130
H752        H  0.83387148  0.95925085  0.75223326     0.17640
H753        H  0.86932069  0.08438467  0.78305936     0.17640
F754        F  0.80380256  0.07987117  0.75719497    -0.20120
C755        C  0.05787781  0.15008878  0.76210702    -0.21550
C756        C  0.02292008  0.13829921  0.77256726    -0.09590
C757        C  0.99324375  0.16359019  0.77124244     0.29270
C758        C  0.99752202  0.19836278  0.75668747    -0.21550
C759        C  0.03211294  0.21041855  0.74601262    -0.09600
C760        C  0.06262447  0.18617868  0.74966737     0.29270
F761        F  0.09654060  0.19689498  0.73968128    -0.20130
H762        H  0.08083222  0.13075182  0.76107442     0.17640
H763        H  0.97339707  0.21597105  0.75386435     0.17640
F764        F  0.95884777  0.15307713  0.77999932    -0.20120
C765        C  0.19673538  0.98163120  0.75898521    -0.21550
C766        C  0.21086037  0.01047968  0.73825286    -0.09590
C767        C  0.18774401  0.04122458  0.73149832     0.29270
C768        C  0.15171144  0.04290277  0.74524189    -0.21550
C769        C  0.13763978  0.01413543  0.76616710    -0.09600
C770        C  0.16082715  0.98342778  0.77281351     0.29270
F771        F  0.14766325  0.95385986  0.79039136    -0.20130
H772        H  0.21389054  0.95769117  0.76483617     0.17640
H773        H  0.13381610  0.06579527  0.73745414     0.17640
F774        F  0.20008520  0.06990149  0.71196802    -0.20120
C775        C  0.98769142  0.88044632  0.75312525    -0.21550
C776        C  0.02138915  0.89113519  0.76842605    -0.09590
C777        C  0.05110296  0.86562479  0.76878144     0.29270
C778        C  0.04828990  0.83220455  0.75157249    -0.21550
C779        C  0.01483760  0.82121707  0.73662160    -0.09600
C780        C  0.98420218  0.84548974  0.73804241     0.29270
F781        F  0.95116154  0.83557119  0.72445871    -0.20130
H782        H  0.96482589  0.89986091  0.75078714     0.17640
H783        H  0.07226981  0.81413071  0.75088698     0.17640
F784        F  0.08432493  0.87468592  0.78275968    -0.20120
C785        C  0.15457547  0.02992765  0.21574706    -0.21550
C786        C  0.13515001  0.99920508  0.22703767    -0.09590
C787        C  0.15461156  0.97206338  0.24747374     0.29270
C788        C  0.19194189  0.97602649  0.25698503    -0.21550
C789        C  0.21093275  0.00729495  0.24669144    -0.09600
C790        C  0.19178702  0.03412452  0.22557414     0.29270
F791        F  0.20861799  0.06525829  0.21585816    -0.20130
H792        H  0.13998575  0.05232202  0.20202641     0.17640
H793        H  0.20594304  0.95482585  0.27297476     0.17640
F794        F  0.13657431  0.94293157  0.26071645    -0.20120
C795        C  0.05072372  0.86498866  0.23667474    -0.21550
C796        C  0.01647089  0.88174414  0.22773276    -0.09590
C797        C  0.98480679  0.86049427  0.23017977     0.29270
C798        C  0.98692667  0.82477275  0.24364222    -0.21550
C799        C  0.02090232  0.80794469  0.25258020    -0.09600
C800        C  0.05304836  0.82812769  0.24811643     0.29270
F801        F  0.08649132  0.81249590  0.25584500    -0.20130
H802        H  0.07531865  0.88100045  0.23698502     0.17640
H803        H  0.96180193  0.80983799  0.24642048     0.17640
F804        F  0.95100449  0.87574302  0.22312302    -0.20120
C805        C  0.86131881  0.96916346  0.22151272    -0.21550
C806        C  0.88696099  0.99732166  0.22082681    -0.09590
C807        C  0.87440057  0.03208177  0.23218963     0.29270
C808        C  0.83843722  0.03731671  0.24619706    -0.21550
C809        C  0.81385345  0.00833087  0.24885461    -0.09600
C810        C  0.82568251  0.97440606  0.23519638     0.29270
F811        F  0.80281697  0.94588033  0.23505369    -0.20130
H812        H  0.86952404  0.94206747  0.21304682     0.17640
H813        H  0.82981774  0.06408961  0.25521990     0.17640
F814        F  0.89760616  0.06039701  0.23235649    -0.20120
C815        C  0.98143438  0.18089412  0.24192042    -0.21550
C816        C  0.01022247  0.20401124  0.25187225    -0.09590
C817        C  0.04651610  0.19038496  0.24866621     0.29270
C818        C  0.05377924  0.15490538  0.23693523    -0.21550
C819        C  0.02533788  0.13067446  0.22928663    -0.09600
C820        C  0.98877239  0.14447945  0.23122915     0.29270
F821        F  0.96015596  0.12236384  0.22495111    -0.20130
H822        H  0.95318366  0.19086043  0.24316334     0.17640
H823        H  0.08227153  0.14554052  0.23605002     0.17640
F824        F  0.07548912  0.21127017  0.25683503    -0.20120
C825        C  0.99074941  0.27576818  0.64355380    -0.21550
C826        C  0.02041555  0.28462214  0.62105096    -0.09590
C827        C  0.05617391  0.28191477  0.63622416     0.29270
C828        C  0.06162943  0.27013524  0.67281177    -0.21550
C829        C  0.03174189  0.25904219  0.69419350    -0.09600
C830        C  0.99624428  0.26204139  0.67879466     0.29270
F831        F  0.96639222  0.25229891  0.69806651    -0.20130
H832        H  0.96296437  0.27636259  0.63248627     0.17640
H833        H  0.08922505  0.26881343  0.68420216     0.17640
F834        F  0.08578402  0.28842277  0.61519851    -0.20120
C835        C  0.87637720  0.27807477  0.47483072    -0.21550
C836        C  0.88738015  0.29255122  0.50848682    -0.09590
C837        C  0.86096593  0.29341890  0.53645259     0.29270
C838        C  0.82603847  0.27855287  0.53166770    -0.21550
C839        C  0.81567268  0.26251847  0.49879293    -0.09600
C840        C  0.84114933  0.26297543  0.47010110     0.29270
F841        F  0.83204629  0.24869438  0.43753731    -0.20130
H842        H  0.89593110  0.27611062  0.45290527     0.17640
H843        H  0.80672663  0.27968451  0.55387128     0.17640
F844        F  0.86950812  0.30738455  0.56933807    -0.20120
C845        C  0.15351531  0.27079892  0.53321334    -0.21550
C846        C  0.13767701  0.28764553  0.50196544    -0.09590
C847        C  0.16068310  0.29388363  0.47204030     0.29270
C848        C  0.19771206  0.28183191  0.47265925    -0.21550
C849        C  0.21291924  0.26312980  0.50307839    -0.09600
C850        C  0.19072081  0.25881550  0.53389307     0.29270
F851        F  0.20461350  0.24174910  0.56414072    -0.20130
H852        H  0.13622903  0.26403890  0.55600110     0.17640
H853        H  0.21431990  0.28598445  0.44876643     0.17640
F854        F  0.14625638  0.30832430  0.44069571    -0.20120
C855        C  0.97999337  0.25637173  0.32579710    -0.21550
C856        C  0.00876300  0.25620127  0.30022793    -0.09590
C857        C  0.04231338  0.27131640  0.31118899     0.29270
C858        C  0.04679825  0.28615175  0.34579508    -0.21550
C859        C  0.01891889  0.28514989  0.37207915    -0.09600
C860        C  0.98506481  0.27014883  0.36141345     0.29270
F861        F  0.95781753  0.26645406  0.38600692    -0.20130
H862        H  0.95374784  0.24514816  0.31840269     0.17640
H863        H  0.07355985  0.29640032  0.35298230     0.17640
F864        F  0.07150693  0.27152542  0.28864873    -0.20120
C865        C  0.03205467  0.12956570  0.34027261    -0.21550
C866        C  0.99587176  0.11886180  0.33388265    -0.09590
C867        C  0.96610481  0.13952399  0.34656230     0.29270
C868        C  0.97288524  0.16649685  0.37135903    -0.21550
C869        C  0.00856185  0.16955311  0.38528964    -0.09600
C870        C  0.03861595  0.15458834  0.36710592     0.29270
F871        F  0.07361609  0.16022930  0.37855157    -0.20130
H872        H  0.05521184  0.11489525  0.32877833     0.17640
H873        H  0.95010444  0.18216453  0.38231358     0.17640
F874        F  0.93094442  0.13146675  0.33792004    -0.20120
C875        C  0.95404172  0.10833379  0.61481972    -0.21550
C876        C  0.97486477  0.11310378  0.64659165    -0.09590
C877        C  0.99754239  0.14312597  0.65002137     0.29270
C878        C  0.00074864  0.16715886  0.62084212    -0.21550
C879        C  0.98183977  0.16083737  0.58821621    -0.09600
C880        C  0.95757376  0.13207001  0.58559438     0.29270
F881        F  0.93743071  0.12697946  0.55489952    -0.20130
H882        H  0.93630337  0.08523662  0.61213391     0.17640
H883        H  0.01912565  0.18979663  0.62313257     0.17640
F884        F  0.01887916  0.14738206  0.68007133    -0.20120
C885        C  0.26637153  0.98697232  0.66690521    -0.21550
C886        C  0.26532946  0.01599720  0.69172051    -0.09590
C887        C  0.27997366  0.04921125  0.68007351     0.29270
C888        C  0.29541263  0.05313486  0.64543779    -0.21550
C889        C  0.29527391  0.02489940  0.61974607    -0.09600
C890        C  0.28067843  0.99139328  0.63127549     0.29270
F891        F  0.27777429  0.96378179  0.60743498    -0.20130
H892        H  0.25539569  0.96099288  0.67489037     0.17640
H893        H  0.30513043  0.07971010  0.63763079     0.17640
F894        F  0.27799786  0.07871749  0.70174790    -0.20120
C895        C  0.30004712  0.15861201  0.52332011    -0.21550
C896        C  0.29394371  0.13911450  0.49125676    -0.09590
C897        C  0.27323297  0.15675526  0.46319734     0.29270
C898        C  0.25836477  0.19223234  0.46766839    -0.21550
C899        C  0.26309734  0.21074467  0.50051356    -0.09600
C900        C  0.28407694  0.19331468  0.52834122     0.29270
F901        F  0.28859743  0.20975929  0.56081314    -0.20130
H902        H  0.31377193  0.14518240  0.54630423     0.17640
H903        H  0.24290614  0.20521655  0.44553253     0.17640
F904        F  0.26435709  0.13826305  0.43281462    -0.20120
C905        C  0.26179957  0.84422142  0.52767216    -0.21550
C906        C  0.26590876  0.81741644  0.50083029    -0.09590
C907        C  0.28443275  0.82727805  0.46877593     0.29270
C908        C  0.29735451  0.86269910  0.46347299    -0.21550
C909        C  0.29243944  0.88996638  0.48967742    -0.09600
C910        C  0.27484071  0.87996210  0.52227207     0.29270
F911        F  0.26762346  0.90543985  0.54772709    -0.20130
H912        H  0.24796522  0.83760119  0.55272573     0.17640
H913        H  0.30945464  0.86952398  0.43755916     0.17640
F914        F  0.28908450  0.80290628  0.44176389    -0.20120
C915        C  0.29445574  0.98466549  0.34937653    -0.21550
C916        C  0.28740482  0.01592061  0.37023389    -0.09590
C917        C  0.26863801  0.04554007  0.35283075     0.29270
C918        C  0.25692977  0.04359633  0.31615316    -0.21550
C919        C  0.26308806  0.01189506  0.29580311    -0.09600
C920        C  0.28252540  0.98257269  0.31286697     0.29270
F921        F  0.28836280  0.95108915  0.29475991    -0.20130
H922        H  0.30671068  0.96056201  0.36232731     0.17640
H923        H  0.24230360  0.06671249  0.30377805     0.17640
F924        F  0.25906566  0.07539601  0.37221264    -0.20120
C925        C  0.17545597  0.14095347  0.49655836    -0.21550
C926        C  0.16511508  0.10441579  0.49939007    -0.09590
C927        C  0.12838422  0.09533519  0.49318368     0.29270
C928        C  0.10230343  0.12250435  0.48624424    -0.21550
C929        C  0.11214013  0.15912796  0.48533157    -0.09600
C930        C  0.14908472  0.16826095  0.48887777     0.29270
F931        F  0.15940740  0.20325966  0.48614695    -0.20130
H932        H  0.20374406  0.14841503  0.50079764     0.17640
H933        H  0.07393512  0.11482674  0.48244182     0.17640
F934        F  0.11709860  0.06047439  0.49528280    -0.20120
C935        C  0.09178519  0.00926309  0.40345798    -0.21550
C936        C  0.09861260  0.02296574  0.36856175    -0.09590
C937        C  0.13485720  0.03061207  0.35833764     0.29270
C938        C  0.16383733  0.02408803  0.38279474    -0.21550
C939        C  0.15686564  0.01065214  0.41773662    -0.09600
C940        C  0.12066509  0.00336493  0.42805992     0.29270
F941        F  0.11336918  0.98933873  0.46145966    -0.20130
H942        H  0.06407862  0.00297551  0.41161965     0.17640
H943        H  0.19165599  0.02973215  0.37455170     0.17640
F944        F  0.14245547  0.04310818  0.32440949    -0.20120
C945        C  0.11647669  0.04839818  0.63017978    -0.21550
C946        C  0.11278766  0.01766407  0.65259442    -0.09590
C947        C  0.14136934  0.99114521  0.65530834     0.29270
C948        C  0.17132626  0.99343497  0.63269726    -0.21550
C949        C  0.17332498  0.02240994  0.60810728    -0.09600
C950        C  0.14710811  0.05101991  0.60811616     0.29270
F951        F  0.14914923  0.07930458  0.58418431    -0.20130
H952        H  0.09494829  0.06932481  0.62850620     0.17640
H953        H  0.19153636  0.97123076  0.63239022     0.17640
F954        F  0.13876975  0.96117794  0.67704163    -0.20120
C955        C  0.75747966  0.19805076  0.53252217    -0.21550
C956        C  0.76679966  0.21086238  0.49793315    -0.09590
C957        C  0.76186072  0.18710541  0.46839748     0.29270
C958        C  0.74970645  0.15093429  0.47412462    -0.21550
C959        C  0.74015991  0.13837188  0.50914898    -0.09600
C960        C  0.74266801  0.16360155  0.53783234     0.29270
F961        F  0.73304513  0.15398034  0.57214879    -0.20130
H962        H  0.76111818  0.21528907  0.55580772     0.17640
H963        H  0.74931596  0.13240783  0.45152274     0.17640
F964        F  0.76959200  0.19851101  0.43419468    -0.20120
C965        C  0.75203899  0.97048767  0.35304190    -0.21550
C966        C  0.74310482  0.99982787  0.37617644    -0.09590
C967        C  0.74424939  0.03514119  0.36047606     0.29270
C968        C  0.75424160  0.04023926  0.32329080    -0.21550
C969        C  0.76477709  0.01047763  0.30118896    -0.09600
C970        C  0.76356302  0.97559358  0.31713510     0.29270
F971        F  0.77242629  0.94571421  0.29762961    -0.20130
H972        H  0.75173506  0.94273285  0.36328270     0.17640
H973        H  0.75446216  0.06755435  0.31194121     0.17640
F974        F  0.73708049  0.06468613  0.38115466    -0.20120
C975        C  0.73689986  0.04151312  0.64864788    -0.21550
C976        C  0.74073434  0.01030743  0.62697626    -0.09590
C977        C  0.75712182  0.97894115  0.64365982     0.29270
C978        C  0.76940606  0.97912789  0.68036263    -0.21550
C979        C  0.76646800  0.01078768  0.70144391    -0.09600
C980        C  0.74968411  0.04194837  0.68495022     0.29270
F981        F  0.74667630  0.07341268  0.70363641    -0.20130
H982        H  0.72669508  0.06681950  0.63636339     0.17640
H983        H  0.78176798  0.95455410  0.69222912     0.17640
F984        F  0.76383133  0.94885341  0.62359437    -0.20120
C985        C  0.77048063  0.83209508  0.53110715    -0.21550
C986        C  0.76687062  0.81342607  0.49817220    -0.09590
C987        C  0.74891964  0.83172726  0.46890988     0.29270
C988        C  0.73590475  0.86790184  0.47227993    -0.21550
C989        C  0.74103327  0.88737715  0.50458741    -0.09600
C990        C  0.75810551  0.86863665  0.53420916     0.29270
F991        F  0.76561351  0.88667725  0.56522279    -0.20130
H992        H  0.78340269  0.81843696  0.55436627     0.17640
H993        H  0.72490357  0.88193959  0.44830006     0.17640
F994        F  0.74498477  0.81491402  0.43656747    -0.20120
C995        C  0.87497796  0.18353729  0.50977955    -0.21550
C996        C  0.90353536  0.18500290  0.48432317    -0.09590
C997        C  0.91035102  0.15493220  0.46239554     0.29270
C998        C  0.89267241  0.12292071  0.46855433    -0.21550
C999        C  0.86512928  0.12076839  0.49446262    -0.09600
C1000       C  0.85533462  0.15174461  0.51446999     0.29270
F1001       F  0.82866553  0.15074803  0.53992142    -0.20130
H1002       H  0.86947637  0.20617572  0.52760107     0.17640
H1003       H  0.90159376  0.09942260  0.45341036     0.17640
F1004       F  0.93632689  0.15471444  0.43698145    -0.20120
C1005       C  0.89460764  0.04697251  0.34437662    -0.21550
C1006       C  0.89422139  0.01514033  0.32406427    -0.09590
C1007       C  0.87135764  0.98669388  0.33438574     0.29270
C1008       C  0.85383870  0.98801894  0.36761439    -0.21550
C1009       C  0.85869826  0.01780832  0.39045302    -0.09600
C1010       C  0.87711565  0.04831058  0.37764106     0.29270
F1011       F  0.87873972  0.07904256  0.39729652    -0.20130
H1012       H  0.91096814  0.06956355  0.33598182     0.17640
H1013       H  0.83817029  0.96482896  0.37628236     0.17640
F1014       F  0.86861337  0.95630896  0.31407273    -0.20120
C1015       C  0.90891390  0.98457366  0.63691540    -0.21550
C1016       C  0.90158947  0.00650825  0.66704647    -0.09590
C1017       C  0.87253399  0.03237702  0.66499564     0.29270
C1018       C  0.85358580  0.03825718  0.63257599    -0.21550
C1019       C  0.86337723  0.01877231  0.60148287    -0.09600
C1020       C  0.89032448  0.99093735  0.60404340     0.29270
F1021       F  0.89890634  0.97025147  0.57494550    -0.20130
H1022       H  0.93084216  0.96443448  0.63780134     0.17640
H1023       H  0.83210127  0.05926523  0.63148983     0.17640
F1024       F  0.86459041  0.05436913  0.69325917    -0.20120
C1025       C  0.16391739  0.75616856  0.45819568    -0.21550
C1026       C  0.14105842  0.74132294  0.48530798    -0.09590
C1027       C  0.15526497  0.74054057  0.52121737     0.29270
C1028       C  0.19102867  0.75378805  0.52893717    -0.21550
C1029       C  0.21259578  0.77004548  0.50151002    -0.09600
C1030       C  0.19779587  0.77156352  0.46623706     0.29270
F1031       F  0.21703444  0.78640016  0.43860012    -0.20130
H1032       H  0.15489863  0.75766317  0.43007138     0.17640
H1033       H  0.20195702  0.75133293  0.55636044     0.17640
F1034       F  0.13472370  0.72747112  0.54878892    -0.20120
C1035       C  0.98637064  0.76234119  0.31891637    -0.21550
C1036       C  0.01856301  0.75443056  0.29944222    -0.09590
C1037       C  0.04587768  0.73172957  0.31598383     0.29270
C1038       C  0.04166999  0.71866954  0.35169262    -0.21550
C1039       C  0.01057600  0.72853191  0.37209262    -0.09600
C1040       C  0.98240059  0.74962259  0.35478522     0.29270
F1041       F  0.95287990  0.76143008  0.37407252    -0.20130
H1042       H  0.96462282  0.77921961  0.30670483     0.17640
H1043       H  0.06468346  0.70427077  0.36481523     0.17640
F1044       F  0.07775641  0.72415013  0.29843804    -0.20120
C1045       C  0.97570352  0.73212880  0.64429757    -0.21550
C1046       C  0.00457281  0.73449734  0.61909988    -0.09590
C1047       C  0.03593397  0.75385493  0.62968208     0.29270
C1048       C  0.03748381  0.77098370  0.66393480    -0.21550
C1049       C  0.00765505  0.76965612  0.68813555    -0.09600
C1050       C  0.97669865  0.75010674  0.67755084     0.29270
F1051       F  0.94707032  0.74846926  0.69960297    -0.20130
H1052       H  0.95065974  0.71854612  0.63688132     0.17640
H1053       H  0.06206465  0.78512924  0.67167105     0.17640
F1054       F  0.06390693  0.75840067  0.60605156    -0.20120
C1055       C  0.83345228  0.74569168  0.52638206    -0.21550
C1056       C  0.81608967  0.76012867  0.49493720    -0.09590
C1057       C  0.83536802  0.75822877  0.46197604     0.29270
C1058       C  0.87183387  0.74391990  0.46115517    -0.21550
C1059       C  0.88941875  0.72990711  0.49288925    -0.09600
C1060       C  0.86889801  0.72977154  0.52522369     0.29270
F1061       F  0.88510065  0.71839854  0.55694919    -0.20130
H1062       H  0.81956464  0.74711390  0.55221171     0.17640
H1063       H  0.88733133  0.74641651  0.43630704     0.17640
F1064       F  0.81944128  0.77142846  0.43083855    -0.20120
C1065       C  0.88883374  0.85298717  0.49610926    -0.21550
C1066       C  0.92508323  0.86157505  0.50509582    -0.09590
C1067       C  0.93489465  0.89801364  0.50856809     0.29270
C1068       C  0.90891250  0.92553989  0.50215368    -0.21550
C1069       C  0.87262786  0.91728708  0.49270317    -0.09600
C1070       C  0.86265892  0.88069194  0.48967661     0.29270
F1071       F  0.82799926  0.87156543  0.48020948    -0.20130
H1072       H  0.88098280  0.82492160  0.49330463     0.17640
H1073       H  0.91736932  0.95343299  0.50471705     0.17640
F1074       F  0.96958684  0.90712200  0.51830511    -0.20120
C1075       C  0.10553999  0.89421356  0.51382016    -0.21550
C1076       C  0.11253473  0.86394938  0.49194175    -0.09590
C1077       C  0.14514936  0.86081832  0.47245092     0.29270
C1078       C  0.17239194  0.88588063  0.47826141    -0.21550
C1079       C  0.16619537  0.91453014  0.50253294    -0.09600
C1080       C  0.13215334  0.91918484  0.51942041     0.29270
F1081       F  0.12397946  0.94820293  0.54062358    -0.20130
H1082       H  0.07952412  0.89829956  0.52750914     0.17640
H1083       H  0.19807661  0.88306344  0.46374083     0.17640
F1084       F  0.15057802  0.83395791  0.44816797    -0.20120
C1085       C  0.00761001  0.88224856  0.34573531    -0.21550
C1086       C  0.98653746  0.91284679  0.35602750    -0.09590
C1087       C  0.97358431  0.91544501  0.39164250     0.29270
C1088       C  0.98342957  0.88861048  0.41711783    -0.21550
C1089       C  0.00618223  0.85896230  0.40740859    -0.09600
C1090       C  0.01760367  0.85549646  0.37122689     0.29270
F1091       F  0.03997111  0.82746526  0.36078861    -0.20130
H1092       H  0.01808187  0.87992343  0.31838925     0.17640
H1093       H  0.97380950  0.89144701  0.44461613     0.17640
F1094       F  0.95196060  0.94409060  0.40193467    -0.20120
C1095       C  0.04840943  0.90530948  0.62523750    -0.21550
C1096       C  0.01393300  0.91735823  0.63681086    -0.09590
C1097       C  0.98363744  0.89464103  0.63581179     0.29270
C1098       C  0.98659883  0.86191765  0.61780148    -0.21550
C1099       C  0.02006102  0.85203744  0.60188486    -0.09600
C1100       C  0.05175270  0.87223744  0.60829770     0.29270
F1101       F  0.08518882  0.86148700  0.59552929    -0.20130
H1102       H  0.07242825  0.92189742  0.62862075     0.17640
H1103       H  0.96228218  0.84592058  0.61392559     0.17640
F1104       F  0.95150232  0.90404888  0.65197851    -0.20120
C1105       C  0.75853767  0.18056990  0.02527154    -0.21550
C1106       C  0.74806281  0.20204156  0.99459884    -0.09590
C1107       C  0.75255582  0.18647810  0.96016680     0.29270
C1108       C  0.76634110  0.15049727  0.95658310    -0.21550
C1109       C  0.77673047  0.12868930  0.98711326    -0.09600
C1110       C  0.77269489  0.14448187  0.02170064     0.29270
F1111       F  0.78081307  0.12458137  0.05219147    -0.20130
H1112       H  0.75595909  0.19191272  0.05214215     0.17640
H1113       H  0.76830292  0.13935108  0.92956675     0.17640
F1114       F  0.74372632  0.20624929  0.92976371    -0.20120
C1115       C  0.74684855  0.87098557  0.97872812    -0.21550
C1116       C  0.78100130  0.88537290  0.98860005    -0.09590
C1117       C  0.81136145  0.86157286  0.98939370     0.29270
C1118       C  0.80648728  0.82395930  0.98417056    -0.21550
C1119       C  0.77078638  0.80814226  0.98244686    -0.09600
C1120       C  0.74129855  0.83363576  0.97699336     0.29270
F1121       F  0.70614554  0.82339093  0.97145594    -0.20130
H1122       H  0.72287796  0.88875041  0.97707748     0.17640
H1123       H  0.83144831  0.80897278  0.98203075     0.17640
F1124       F  0.84537912  0.87407461  0.99683591    -0.20120
C1125       C  0.76345769  0.97470409  0.82599709    -0.21550
C1126       C  0.75953539  0.00865397  0.80790669    -0.09590
C1127       C  0.76566156  0.04013323  0.82834885     0.29270
C1128       C  0.77567413  0.03757755  0.86545160    -0.21550
C1129       C  0.77874332  0.00374847  0.88384902    -0.09600
C1130       C  0.77208186  0.97226790  0.86354970     0.29270
F1131       F  0.77212741  0.93923001  0.88047042    -0.20130
H1132       H  0.75868266  0.94999275  0.81118252     0.17640
H1133       H  0.77832341  0.06245763  0.88057223     0.17640
F1134       F  0.76042239  0.07360388  0.81299167    -0.20120
C1135       C  0.77446000  0.04216275  0.17473688    -0.21550
C1136       C  0.75707963  0.01428431  0.19457027    -0.09590
C1137       C  0.75337706  0.98063593  0.17750788     0.29270
C1138       C  0.76677913  0.97485758  0.14227280    -0.21550
C1139       C  0.78271536  0.00285774  0.12141534    -0.09600
C1140       C  0.78651897  0.03683297  0.13846015     0.29270
F1141       F  0.80100747  0.06512702  0.11995035    -0.20130
H1142       H  0.77843735  0.06823830  0.18730978     0.17640
H1143       H  0.76321236  0.94827643  0.13065333     0.17640
F1144       F  0.73726650  0.95277498  0.19533476    -0.20120
C1145       C  0.25569039  0.87069913  0.96650857    -0.21550
C1146       C  0.25287798  0.88352402  0.00232351    -0.09590
C1147       C  0.25794813  0.85783555  0.03100881     0.29270
C1148       C  0.26778300  0.82137999  0.02423373    -0.21550
C1149       C  0.27275858  0.80900686  0.98870154    -0.09600
C1150       C  0.26540362  0.83380439  0.95972792     0.29270
F1151       F  0.26904469  0.82271354  0.92492729    -0.20130
H1152       H  0.25305823  0.88971895  0.94383794     0.17640
H1153       H  0.27219073  0.80275115  0.04701523     0.17640
F1154       F  0.25553690  0.86862551  0.06606032    -0.20120
C1155       C  0.21015581  0.15769095  0.97885925    -0.21550
C1156       C  0.22064972  0.13193800  0.00590971    -0.09590
C1157       C  0.23920220  0.14447963  0.03696358     0.29270
C1158       C  0.24884250  0.18120911  0.03970006    -0.21550
C1159       C  0.24019618  0.20635877  0.01159280    -0.09600
C1160       C  0.22023373  0.19420176  0.98126265     0.29270
F1161       F  0.21291893  0.21696083  0.95260052    -0.20130
H1162       H  0.19790956  0.14861690  0.95370114     0.17640
H1163       H  0.26432709  0.18976285  0.06323710     0.17640
F1164       F  0.25192734  0.12032138  0.06264524    -0.20120
C1165       C  0.26055527  0.98641870  0.82283465    -0.21550
C1166       C  0.26046571  0.01637437  0.79836687    -0.09590
C1167       C  0.24149907  0.04834689  0.80912595     0.29270
C1168       C  0.22569948  0.05107948  0.84377774    -0.21550
C1169       C  0.22786420  0.02215824  0.86948179    -0.09600
C1170       C  0.24429095  0.98903573  0.85771861     0.29270
F1171       F  0.24745063  0.96007059  0.88089006    -0.20130
H1172       H  0.27360797  0.96094212  0.81502182     0.17640
H1173       H  0.21329136  0.07698580  0.85121803     0.17640
F1174       F  0.23838125  0.07743207  0.78611027    -0.20120
C1175       C  0.26513639  0.04055781  0.12841928    -0.21550
C1176       C  0.24435489  0.01230147  0.11375863    -0.09590
C1177       C  0.23452651  0.98383600  0.13748961     0.29270
C1178       C  0.24532289  0.98370344  0.17447967    -0.21550
C1179       C  0.26637126  0.01190622  0.18904634    -0.09600
C1180       C  0.27590462  0.04051458  0.16534012     0.29270
F1181       F  0.29608054  0.06838851  0.17771954    -0.20130
H1182       H  0.27508073  0.06174397  0.11058022     0.17640
H1183       H  0.23801458  0.96091347  0.19164515     0.17640
F1184       F  0.21691044  0.95465837  0.12424889    -0.20120
C1185       C  0.48102750  0.19696146  0.26207611    -0.21550
C1186       C  0.51627284  0.21080740  0.25748577    -0.09590
C1187       C  0.54702871  0.18796243  0.26573535     0.29270
C1188       C  0.54232583  0.15113299  0.27536309    -0.21550
C1189       C  0.50686507  0.13692465  0.27825989    -0.09600
C1190       C  0.47638669  0.16123772  0.27432547     0.29270
F1191       F  0.44167522  0.14858563  0.27648990    -0.20130
H1192       H  0.45687923  0.21397850  0.25626159     0.17640
H1193       H  0.56627163  0.13297890  0.27691542     0.17640
F1194       F  0.58154063  0.20069066  0.26229384    -0.20120
C1195       C  0.49774176  0.87486582  0.25325323    -0.21550
C1196       C  0.52989651  0.89055867  0.26722700    -0.09590
C1197       C  0.56265201  0.86887754  0.26685164     0.29270
C1198       C  0.56314387  0.83311842  0.25334858    -0.21550
C1199       C  0.53136386  0.81775802  0.23856692    -0.09600
C1200       C  0.49850659  0.83926768  0.23873092     0.29270
F1201       F  0.46684890  0.82555860  0.22549769    -0.20130
H1202       H  0.47233519  0.89089830  0.25174891     0.17640
H1203       H  0.58857326  0.81710335  0.25472035     0.17640
F1204       F  0.59468149  0.88257611  0.27924177    -0.20120
C1205       C  0.37790336  0.98758979  0.25257012    -0.21550
C1206       C  0.39121673  0.02074554  0.26534396    -0.09590
C1207       C  0.36670799  0.05113474  0.26564877     0.29270
C1208       C  0.33011044  0.04837474  0.25346780    -0.21550
C1209       C  0.31718422  0.01559213  0.23958414    -0.09600
C1210       C  0.34145857  0.98509115  0.23949140     0.29270
F1211       F  0.32986500  0.95283116  0.22674118    -0.20130
H1212       H  0.39638803  0.96411431  0.25067015     0.17640
H1213       H  0.31179522  0.07204664  0.25451400     0.17640
F1214       F  0.37850584  0.08388009  0.27693420    -0.20120
C1215       C  0.64555610  0.05014234  0.24114645    -0.21550
C1216       C  0.62933203  0.02219427  0.26170883    -0.09590
C1217       C  0.65246496  0.99316164  0.27399081     0.29270
C1218       C  0.69016449  0.99178088  0.26509926    -0.21550
C1219       C  0.70643931  0.01977884  0.24463111    -0.09600
C1220       C  0.68344408  0.04916923  0.23296807     0.29270
F1221       F  0.69736457  0.07647658  0.21256574    -0.20130
H1222       H  0.62828304  0.07189182  0.22955560     0.17640
H1223       H  0.70623903  0.96773310  0.27280240     0.17640
F1224       F  0.63789044  0.96422225  0.29144161    -0.20120
C1225       C  0.39026489  0.04610181  0.08631110    -0.21550
C1226       C  0.37088873  0.01391550  0.08190025    -0.09590
C1227       C  0.36517206  0.99118468  0.11239363     0.29270
C1228       C  0.38183569  0.99860709  0.14543293    -0.21550
C1229       C  0.40461972  0.02850434  0.14874933    -0.09600
C1230       C  0.40689714  0.05358234  0.11965789     0.29270
F1231       F  0.42786310  0.08346787  0.12229234    -0.20130
H1232       H  0.39366654  0.06479506  0.06365455     0.17640
H1233       H  0.37936924  0.97920941  0.16765127     0.17640
F1234       F  0.34459736  0.96096282  0.11022902    -0.20120
C1235       C  0.61691232  0.01230862  0.13514548    -0.21550
C1236       C  0.61389402  0.97661263  0.14839958    -0.09590
C1237       C  0.64388739  0.95210151  0.14714534     0.29270
C1238       C  0.67524612  0.96217729  0.12910072    -0.21550
C1239       C  0.67679045  0.99669090  0.11245567    -0.09600
C1240       C  0.64843912  0.02261862  0.11763856     0.29270
F1241       F  0.64911168  0.05637600  0.10223757    -0.20130
H1242       H  0.59459578  0.03216203  0.13771467     0.17640
H1243       H  0.69679599  0.94177577  0.12513437     0.17640
F1244       F  0.64203097  0.91785397  0.16119566    -0.20120
C1245       C  0.64099299  0.27065283  0.03232107    -0.21550
C1246       C  0.62409759  0.28541037  0.00053665    -0.09590
C1247       C  0.64465620  0.28491522  0.96820973     0.29270
C1248       C  0.68024989  0.26926637  0.96747659    -0.21550
C1249       C  0.69664528  0.25346039  0.99881304    -0.09600
C1250       C  0.67675124  0.25465047  0.03146235     0.29270
F1251       F  0.69191643  0.24039122  0.06252052    -0.20130
H1252       H  0.62566732  0.26944147  0.05736348     0.17640
H1253       H  0.69533533  0.26971594  0.94225314     0.17640
F1254       F  0.62960620  0.29838644  0.93673105    -0.20120
C1255       C  0.34724896  0.27689098  0.04148714    -0.21550
C1256       C  0.36472586  0.28014742  0.00761407    -0.09590
C1257       C  0.34506045  0.27012432  0.97612344     0.29270
C1258       C  0.30980461  0.25586716  0.97885721    -0.21550
C1259       C  0.29277610  0.25223251  0.01270390    -0.09600
C1260       C  0.31167838  0.26319220  0.04402267     0.29270
F1261       F  0.29555049  0.26084998  0.07702272    -0.20130
H1262       H  0.36157419  0.28387022  0.06627270     0.17640
H1263       H  0.29515139  0.24870031  0.95430370     0.17640
F1264       F  0.36028663  0.27268802  0.94269784    -0.20120
C1265       C  0.53454545  0.28866460  0.84408097    -0.21550
C1266       C  0.49996244  0.28659896  0.86049568    -0.09590
C1267       C  0.46922440  0.27696749  0.83957946     0.29270
C1268       C  0.47378551  0.26702539  0.80342294    -0.21550
C1269       C  0.50872094  0.26745931  0.78776417    -0.09600
C1270       C  0.53892572  0.27930552  0.80792716     0.29270
F1271       F  0.57264530  0.28157631  0.79267419    -0.20130
H1272       H  0.55858636  0.29588014  0.85980744     0.17640
H1273       H  0.45013669  0.25902196  0.78755794     0.17640
F1274       F  0.43550016  0.27430328  0.85475717    -0.20120
C1275       C  0.47711684  0.27460100  0.20015722    -0.21550
C1276       C  0.51270038  0.26209500  0.20973164    -0.09590
C1277       C  0.54144825  0.26565604  0.18500854     0.29270
C1278       C  0.53422501  0.28020201  0.15035729    -0.21550
C1279       C  0.49804660  0.29020576  0.13977810    -0.09600
C1280       C  0.46973542  0.28847580  0.16538702     0.29270
F1281       F  0.43444411  0.29733353  0.15569361    -0.20130
H1282       H  0.45498762  0.27312729  0.21957411     0.17640
H1283       H  0.55620757  0.28016388  0.13069230     0.17640
F1284       F  0.57617078  0.25420056  0.19410862    -0.20120
C1285       C  0.50556789  0.12518533  0.08030172    -0.21550
C1286       C  0.51810873  0.15712290  0.09632427    -0.09590
C1287       C  0.53991588  0.15447721  0.12799849     0.29270
C1288       C  0.54504765  0.12087645  0.14561191    -0.21550
C1289       C  0.52848533  0.08961710  0.13191896    -0.09600
C1290       C  0.51091920  0.09157201  0.09773848     0.29270
F1291       F  0.49607566  0.06174798  0.08262613    -0.20130
H1292       H  0.48993035  0.12645506  0.05506590     0.17640
H1293       H  0.55936345  0.12002332  0.17159096     0.17640
F1294       F  0.55346351  0.18458246  0.14372423    -0.20120
C1295       C  0.40024582  0.15933650  0.93924335    -0.21550
C1296       C  0.39319938  0.18305966  0.96792902    -0.09590
C1297       C  0.36199864  0.17786282  0.98970114     0.29270
C1298       C  0.33888123  0.14934591  0.98337188    -0.21550
C1299       C  0.34784745  0.12382385  0.95715350    -0.09600
C1300       C  0.37822763  0.12907509  0.93445787     0.29270
F1301       F  0.38747289  0.10424203  0.90896623    -0.20130
H1302       H  0.42423498  0.16241005  0.92263158     0.17640
H1303       H  0.31598703  0.14519745  0.00147468     0.17640
F1304       F  0.35561551  0.19825110  0.01946006    -0.20120
C1305       C  0.61978820  0.17075842  0.03553370    -0.21550
C1306       C  0.60171227  0.17998271  0.00239085    -0.09590
C1307       C  0.61298454  0.16364136  0.97006246     0.29270
C1308       C  0.63984744  0.13619296  0.97167199    -0.21550
C1309       C  0.65511365  0.12543802  0.00532129    -0.09600
C1310       C  0.64640882  0.14354220  0.03694348     0.29270
F1311       F  0.66185561  0.13321005  0.06935412    -0.20130
H1312       H  0.61243471  0.18352085  0.06089135     0.17640
H1313       H  0.64684011  0.12163666  0.94718338     0.17640
F1314       F  0.59751672  0.17317109  0.93746845    -0.20120
C1315       C  0.69079787  0.04693620  0.75699370    -0.21550
C1316       C  0.71032742  0.01345057  0.75559847    -0.09590
C1317       C  0.69357024  0.98423483  0.73822079     0.29270
C1318       C  0.65767277  0.98812402  0.72393914    -0.21550
C1319       C  0.63726073  0.02100861  0.72700402    -0.09600
C1320       C  0.65468289  0.05068358  0.74300252     0.29270
F1321       F  0.63545563  0.08229241  0.74822638    -0.20130
H1322       H  0.70335861  0.07014853  0.76936520     0.17640
H1323       H  0.64443919  0.96424139  0.71360034     0.17640
F1324       F  0.71150402  0.95148455  0.73626345    -0.20120
C1325       C  0.36403613  0.06284661  0.74296359    -0.21550
C1326       C  0.38742095  0.03680907  0.72619285    -0.09590
C1327       C  0.37414241  0.00125161  0.72290024     0.29270
C1328       C  0.33844419  0.99282908  0.73528013    -0.21550
C1329       C  0.31586530  0.01912276  0.75269488    -0.09600
C1330       C  0.32975954  0.05400593  0.75691187     0.29270
F1331       F  0.30945111  0.08052400  0.77307398    -0.20130
H1332       H  0.37277130  0.09046033  0.74687363     0.17640
H1333       H  0.32818804  0.96582363  0.73095497     0.17640
F1334       F  0.39544233  0.97471683  0.70791106    -0.20120
C1335       C  0.48767464  0.20655111  0.71542945    -0.21550
C1336       C  0.51593328  0.22184035  0.73614693    -0.09590
C1337       C  0.54685779  0.19961136  0.74546710     0.29270
C1338       C  0.54830537  0.16263427  0.73606179    -0.21550
C1339       C  0.51915799  0.14686412  0.71697485    -0.09600
C1340       C  0.48934768  0.16969888  0.70570157     0.29270
F1341       F  0.45968533  0.15527874  0.68906777    -0.20130
H1342       H  0.46325067  0.22271120  0.70841457     0.17640
H1343       H  0.57074566  0.14548158  0.74665017     0.17640
F1344       F  0.57500397  0.21312077  0.76512740    -0.20120
C1345       C  0.55063168  0.87535003  0.75210240    -0.21550
C1346       C  0.52388015  0.89729110  0.73315372    -0.09590
C1347       C  0.49000906  0.88086278  0.72538243     0.29270
C1348       C  0.48413609  0.84382270  0.73567022    -0.21550
C1349       C  0.51123790  0.82266129  0.75523584    -0.09600
C1350       C  0.54428853  0.83973505  0.76363224     0.29270
F1351       F  0.57177113  0.82173038  0.78200262    -0.20130
H1352       H  0.57715453  0.88600489  0.75940503     0.17640
H1353       H  0.45826862  0.83168294  0.72853656     0.17640
F1354       F  0.46264061  0.90035046  0.70822580    -0.20120
C1355       C  0.47825204  0.17904949  0.87270414    -0.21550
C1356       C  0.49621271  0.17182056  0.90612250    -0.09590
C1357       C  0.51306168  0.13750642  0.91226088     0.29270
C1358       C  0.51100338  0.11069061  0.88561033    -0.21550
C1359       C  0.49310774  0.11792942  0.85199248    -0.09600
C1360       C  0.47705534  0.15269974  0.84569796     0.29270
F1361       F  0.45941904  0.16108126  0.81386191    -0.20130
H1362       H  0.46522296  0.20539745  0.86740725     0.17640
H1363       H  0.52352028  0.08420999  0.89128085     0.17640
F1364       F  0.53044957  0.12954486  0.94431414    -0.20120
C1365       C  0.34005829  0.05433766  0.85540943    -0.21550
C1366       C  0.32856247  0.02158509  0.87096520    -0.09590
C1367       C  0.34538541  0.98841258  0.86145964     0.29270
C1368       C  0.37714219  0.98878059  0.84121824    -0.21550
C1369       C  0.39219775  0.02200789  0.83139535    -0.09600
C1370       C  0.37250867  0.05472837  0.83626903     0.29270
F1371       F  0.38630744  0.08716719  0.82576621    -0.20130
H1372       H  0.32669440  0.08011239  0.86182968     0.17640
H1373       H  0.39100765  0.96337374  0.83489954     0.17640
F1374       F  0.33330656  0.95618594  0.87456429    -0.20120
C1375       C  0.58627531  0.02908230  0.88970682    -0.21550
C1376       C  0.59709476  0.01760113  0.85519593    -0.09590
C1377       C  0.63450530  0.01740202  0.84563778     0.29270
C1378       C  0.66040762  0.02970019  0.87003521    -0.21550
C1379       C  0.64926262  0.04104883  0.90426942    -0.09600
C1380       C  0.61224870  0.04080991  0.91420020     0.29270
F1381       F  0.60142778  0.05143492  0.94773050    -0.20130
H1382       H  0.55775414  0.02885005  0.89786425     0.17640
H1383       H  0.68928811  0.02858751  0.86295050     0.17640
F1384       F  0.64631149  0.00462678  0.81333331    -0.20120
C1385       C  0.38534161  0.74046580  0.96623119    -0.21550
C1386       C  0.39592333  0.72558938  0.00050553    -0.09590
C1387       C  0.36861454  0.72523355  0.02771978     0.29270
C1388       C  0.33424582  0.74261176  0.02237738    -0.21550
C1389       C  0.32321519  0.75684578  0.98839480    -0.09600
C1390       C  0.34903958  0.75491610  0.95992124     0.29270
F1391       F  0.33966710  0.76829066  0.92646946    -0.20130
H1392       H  0.40556883  0.74267768  0.94498082     0.17640
H1393       H  0.31564270  0.74427055  0.04507280     0.17640
F1394       F  0.37635123  0.71065330  0.06114341    -0.20120
C1395       C  0.70609442  0.75175724  0.02423172    -0.21550
C1396       C  0.72289182  0.75584188  0.99011799    -0.09590
C1397       C  0.70273355  0.74694531  0.95885037     0.29270
C1398       C  0.66637374  0.73547674  0.96160571    -0.21550
C1399       C  0.64864051  0.73346597  0.99540457    -0.09600
C1400       C  0.66916356  0.74121834  0.02686056     0.29270
F1401       F  0.65267519  0.74136059  0.05975840    -0.20130
H1402       H  0.72130042  0.75794051  0.04874094     0.17640
H1403       H  0.65079284  0.73140036  0.93678888     0.17640
F1404       F  0.71776870  0.75091780  0.92547800    -0.20120
C1405       C  0.49669350  0.72816306  0.14594807    -0.21550
C1406       C  0.52743031  0.72663683  0.12280041    -0.09590
C1407       C  0.56014864  0.74204139  0.13592802     0.29270
C1408       C  0.56134707  0.75924936  0.17024786    -0.21550
C1409       C  0.52954472  0.76309797  0.19170168    -0.09600
C1410       C  0.49719223  0.74720466  0.17877882     0.29270
F1411       F  0.46546754  0.75083011  0.19763318    -0.20130
H1412       H  0.47049205  0.71842674  0.13629428     0.17640
H1413       H  0.58697341  0.77034120  0.17971631     0.17640
F1414       F  0.59003190  0.74331921  0.11422359    -0.20120
C1415       C  0.55632467  0.73909862  0.84815794    -0.21550
C1416       C  0.52909675  0.74029772  0.87505394    -0.09590
C1417       C  0.49402732  0.75481413  0.86494330     0.29270
C1418       C  0.48712296  0.76853294  0.82924491    -0.21550
C1419       C  0.51499852  0.76844612  0.80285842    -0.09600
C1420       C  0.54963127  0.75294147  0.81292754     0.29270
F1421       F  0.57781450  0.75227497  0.78907784    -0.20130
H1422       H  0.58389888  0.72924904  0.85513190     0.17640
H1423       H  0.46011132  0.77988285  0.82237060     0.17640
F1424       F  0.46728822  0.75831076  0.89020615    -0.20120
C1425       C  0.47316199  0.87753828  0.88971307    -0.21550
C1426       C  0.50737773  0.86138158  0.89833669    -0.09590
C1427       C  0.53873520  0.86960329  0.87833372     0.29270
C1428       C  0.53626966  0.89686165  0.85205857    -0.21550
C1429       C  0.50268647  0.91572955  0.84619372    -0.09600
C1430       C  0.47075180  0.90469288  0.86362833     0.29270
F1431       F  0.43763814  0.92117863  0.85675266    -0.20130
H1432       H  0.44863089  0.87037226  0.90442603     0.17640
H1433       H  0.56106280  0.90498570  0.83836074     0.17640
F1434       F  0.57212120  0.85393223  0.88645955    -0.20120
C1435       C  0.45662032  0.86001615  0.10909617    -0.21550
C1436       C  0.49033904  0.84297461  0.10134997    -0.09590
C1437       C  0.52072150  0.84563412  0.12443279     0.29270
C1438       C  0.51901001  0.87034934  0.15227060    -0.21550
C1439       C  0.48767921  0.89304302  0.15501106    -0.09600
C1440       C  0.45540133  0.88607051  0.13571548     0.29270
F1441       F  0.42473540  0.90758976  0.13925848    -0.20130
H1442       H  0.43242239  0.85559179  0.09244638     0.17640
H1443       H  0.54386610  0.87563150  0.16766157     0.17640
F1444       F  0.55277549  0.82729764  0.11773631    -0.20120
C1445       C  0.39982012  0.92273669  0.00445424    -0.21550
C1446       C  0.37201274  0.92025737  0.97838780    -0.09590
C1447       C  0.36010810  0.88625719  0.96696215     0.29270
C1448       C  0.37850514  0.85477211  0.97955086    -0.21550
C1449       C  0.40817030  0.85763711  0.00377023    -0.09600
C1450       C  0.41761216  0.89165566  0.01741892     0.29270
F1451       F  0.44802504  0.89546302  0.03856175    -0.20130
H1452       H  0.40829627  0.94891308  0.01433073     0.17640
H1453       H  0.37221837  0.82887501  0.96764273     0.17640
F1454       F  0.33287345  0.88385705  0.94171291    -0.20120
C1455       C  0.62243088  0.92351165  0.02172289    -0.21550
C1456       C  0.64740034  0.93025596  0.99375363    -0.09590
C1457       C  0.65018260  0.90576344  0.96480530     0.29270
C1458       C  0.62907185  0.87446735  0.96460349    -0.21550
C1459       C  0.60419455  0.86781997  0.99265277    -0.09600
C1460       C  0.60087050  0.89271661  0.02115506     0.29270
F1461       F  0.57697410  0.88707862  0.04867122    -0.20130
H1462       H  0.62016199  0.94170678  0.04455614     0.17640
H1463       H  0.63107383  0.85618480  0.94183664     0.17640
F1464       F  0.67268176  0.91247081  0.93640592    -0.20120
C1465       C  0.88815318  0.75388813  0.96617576    -0.21550
C1466       C  0.90266208  0.76745547  0.99871208    -0.09590
C1467       C  0.87960754  0.76959921  0.02929412     0.29270
C1468       C  0.84320510  0.75817868  0.02754319    -0.21550
C1469       C  0.82849668  0.74523968  0.99491392    -0.09600
C1470       C  0.85132854  0.74284865  0.96421804     0.29270
F1471       F  0.83786703  0.73018224  0.93242412    -0.20130
H1472       H  0.90580345  0.75009921  0.94292968     0.17640
H1473       H  0.82598288  0.76085828  0.05123275     0.17640
F1474       F  0.89287613  0.78177437  0.06141581    -0.20120
C1475       C  0.19749610  0.76424868  0.94926294    -0.21550
C1476       C  0.21585340  0.75516961  0.98202496    -0.09590
C1477       C  0.19537027  0.75646041  0.01441680     0.29270
C1478       C  0.15716499  0.76473401  0.01360825    -0.21550
C1479       C  0.13835289  0.77168419  0.98050582    -0.09600
C1480       C  0.15934222  0.77213894  0.94838912     0.29270
F1481       F  0.14262416  0.77877458  0.91576516    -0.20130
H1482       H  0.21255961  0.76396710  0.92403241     0.17640
H1483       H  0.14191960  0.76363581  0.03871075     0.17640
F1484       F  0.21210833  0.74905776  0.04687425    -0.20120
C1485       C  0.98793707  0.78990706  0.85001911    -0.21550
C1486       C  0.02275502  0.79097751  0.86719095    -0.09590
C1487       C  0.05392465  0.78504740  0.84518801     0.29270
C1488       C  0.05024997  0.77170402  0.80980415    -0.21550
C1489       C  0.01546101  0.76779554  0.79366662    -0.09600
C1490       C  0.98431556  0.77902249  0.81352070     0.29270
F1491       F  0.95024043  0.77747563  0.79831793    -0.20130
H1492       H  0.96328901  0.79341628  0.86602818     0.17640
H1493       H  0.07479031  0.76433008  0.79486492     0.17640
F1494       F  0.08812548  0.78567685  0.86028828    -0.20120
C1495       C  0.98565263  0.77225758  0.18082206    -0.21550
C1496       C  0.01954824  0.75864482  0.19453853    -0.09590
C1497       C  0.05132985  0.76549959  0.17417921     0.29270
C1498       C  0.04827784  0.78091673  0.13879698    -0.21550
C1499       C  0.01360668  0.79108091  0.12368261    -0.09600
C1500       C  0.98318228  0.79070297  0.14724644     0.29270
F1501       F  0.94930118  0.80118862  0.13445822    -0.20130
H1502       H  0.96085887  0.76883999  0.19640738     0.17640
H1503       H  0.07234433  0.78050591  0.12168036     0.17640
F1504       F  0.08494134  0.75472349  0.18733055    -0.20120
C1505       C  0.85563920  0.24513814  0.95309640    -0.21550
C1506       C  0.87705666  0.23164314  0.98288816    -0.09590
C1507       C  0.85969144  0.22914834  0.01688576     0.29270
C1508       C  0.82290080  0.24181692  0.02104302    -0.21550
C1509       C  0.80253144  0.25734410  0.99156561    -0.09600
C1510       C  0.81911043  0.25778492  0.95729762     0.29270
F1511       F  0.80010682  0.27082447  0.92777742    -0.20130
H1512       H  0.86786409  0.24766118  0.92649632     0.17640
H1513       H  0.81043703  0.24018624  0.04758626     0.17640
F1514       F  0.87894562  0.21704475  0.04663382    -0.20120
C1515       C  0.04506057  0.24360525  0.86027016    -0.21550
C1516       C  0.00827932  0.23719731  0.87031415    -0.09590
C1517       C  0.98104993  0.24384875  0.84292915     0.29270
C1518       C  0.98947460  0.26012851  0.80930839    -0.21550
C1519       C  0.02589671  0.26627728  0.79908669    -0.09600
C1520       C  0.05387381  0.25663755  0.82479087     0.29270
F1521       F  0.08965109  0.26122058  0.81612051    -0.20130
H1522       H  0.06677753  0.24078293  0.88055908     0.17640
H1523       H  0.96719410  0.26691171  0.79044364     0.17640
F1524       F  0.94501833  0.23916322  0.85075362    -0.20120
C1525       C  0.13202402  0.23634495  0.02731405    -0.21550
C1526       C  0.11226120  0.25009131  0.99689921    -0.09590
C1527       C  0.13036263  0.27382922  0.97289689     0.29270
C1528       C  0.16736086  0.28269754  0.97868802    -0.21550
C1529       C  0.18734537  0.26862505  0.00885713    -0.09600
C1530       C  0.16881760  0.24589628  0.03358828     0.29270
F1531       F  0.18617554  0.23341152  0.06428892    -0.20130
H1532       H  0.11828810  0.21993412  0.04744532     0.17640
H1533       H  0.18053785  0.30021218  0.95915589     0.17640
F1534       F  0.11182957  0.28921421  0.94411975    -0.20120
C1535       C  0.03873255  0.23849149  0.14157686    -0.21550
C1536       C  0.00755831  0.23200042  0.11955598    -0.09590
C1537       C  0.97273998  0.23721353  0.13585626     0.29270
C1538       C  0.96968153  0.24920251  0.17242056    -0.21550
C1539       C  0.00111130  0.25685082  0.19375658    -0.09600
C1540       C  0.03572043  0.25051318  0.17769076     0.29270
F1541       F  0.06705090  0.25656706  0.19670557    -0.20130
H1542       H  0.06600153  0.23555217  0.13019982     0.17640
H1543       H  0.94259454  0.25321375  0.18389184     0.17640
F1544       F  0.94161765  0.23301942  0.11584644    -0.20120
C1545       C  0.83088646  0.54290680  0.26718541    -0.21550
C1546       C  0.81364646  0.51547539  0.24741907    -0.09590
C1547       C  0.83358560  0.48265878  0.24194377     0.29270
C1548       C  0.87026400  0.47835595  0.25426281    -0.21550
C1549       C  0.88812396  0.50643899  0.27252754    -0.09600
C1550       C  0.86754249  0.53855168  0.27949841     0.29270
F1551       F  0.88417848  0.56730046  0.29481834    -0.20130
H1552       H  0.81615698  0.56830707  0.27217507     0.17640
H1553       H  0.88578858  0.45406034  0.24685375     0.17640
F1554       F  0.81789783  0.45479695  0.22428633    -0.20120
C1555       C  0.19972938  0.46630385  0.26864268    -0.21550
C1556       C  0.21005667  0.49940576  0.25278929    -0.09590
C1557       C  0.18465083  0.52900197  0.25346039     0.29270
C1558       C  0.14899015  0.52471217  0.26755022    -0.21550
C1559       C  0.13758248  0.49060629  0.28056519    -0.09600
C1560       C  0.16421932  0.46193802  0.28243374     0.29270
F1561       F  0.15471627  0.42851772  0.29473105    -0.20130
H1562       H  0.21923983  0.44353111  0.26994133     0.17640
H1563       H  0.12926848  0.54721793  0.26500088     0.17640
F1564       F  0.19413611  0.56192559  0.23990559    -0.20120
C1565       C  0.97223214  0.65733349  0.26142443    -0.21550
C1566       C  0.00040251  0.63018265  0.26193277    -0.09590
C1567       C  0.03627959  0.64092618  0.25304991     0.29270
C1568       C  0.04307731  0.67737033  0.24257670    -0.21550
C1569       C  0.01438743  0.70394729  0.24077271    -0.09600
C1570       C  0.97900303  0.69347094  0.25113578     0.29270
F1571       F  0.95067524  0.71827455  0.25089907    -0.20130
H1572       H  0.94419105  0.65004704  0.26728450     0.17640
H1573       H  0.07074098  0.68476343  0.23539743     0.17640
F1574       F  0.06415058  0.61572044  0.25152919    -0.20120
C1575       C  0.03404572  0.32536286  0.24496275    -0.21550
C1576       C  0.99969006  0.30911387  0.24290836    -0.09590
C1577       C  0.96905264  0.32922112  0.25639507     0.29270
C1578       C  0.97288361  0.36534391  0.26931592    -0.21550
C1579       C  0.00780970  0.38116151  0.27182637    -0.09600
C1580       C  0.03839305  0.35938418  0.26092303     0.29270
F1581       F  0.07279544  0.37297669  0.26209759    -0.20130
H1582       H  0.05827346  0.31105225  0.23526457     0.17640
H1583       H  0.94847165  0.38139984  0.27572208     0.17640
F1584       F  0.93528668  0.31435563  0.25605910    -0.20120
C1585       C  0.99654507  0.40026253  0.08624426    -0.21550
C1586       C  0.99091712  0.36568923  0.10161940    -0.09590
C1587       C  0.00625244  0.35681332  0.13581538     0.29270
C1588       C  0.02598620  0.38277724  0.15457050    -0.21550
C1589       C  0.03152715  0.41689529  0.13836617    -0.09600
C1590       C  0.01872978  0.42451745  0.10322423     0.29270
F1591       F  0.02422601  0.45739969  0.08705005    -0.20130
H1592       H  0.98551146  0.40820991  0.05977248     0.17640
H1593       H  0.03482928  0.37718381  0.18230023     0.17640
F1594       F  0.00145310  0.32367371  0.15114425    -0.20120
C1595       C  0.04423392  0.63826556  0.15408011    -0.21550
C1596       C  0.04933604  0.60212255  0.14430298    -0.09590
C1597       C  0.07015880  0.59312954  0.11345687     0.29270
C1598       C  0.07957158  0.62032001  0.08918592    -0.21550
C1599       C  0.06695099  0.65584007  0.09526750    -0.09600
C1600       C  0.05349643  0.66544833  0.12965483     0.29270
F1601       F  0.04103482  0.69969610  0.13616875    -0.20130
H1602       H  0.02790563  0.64529675  0.17744660     0.17640
H1603       H  0.09075006  0.61280274  0.06306041     0.17640
F1604       F  0.07688476  0.55794172  0.10426815    -0.20120
C1605       C  0.28066910  0.53919095  0.86696335    -0.21550
C1606       C  0.28059012  0.50446488  0.88342504    -0.09590
C1607       C  0.27331936  0.47421027  0.86165987     0.29270
C1608       C  0.26422956  0.47872363  0.82489100    -0.21550
C1609       C  0.26236320  0.51343327  0.80879068    -0.09600
C1610       C  0.27177977  0.54366921  0.82978009     0.29270
F1611       F  0.27080846  0.57756843  0.81468281    -0.20130
H1612       H  0.28486640  0.56299447  0.88336496     0.17640
H1613       H  0.25801299  0.45502137  0.80903883     0.17640
F1614       F  0.27236287  0.44033812  0.87677111    -0.20120
C1615       C  0.27319085  0.48586578  0.14121205    -0.21550
C1616       C  0.28529731  0.52014169  0.12905265    -0.09590
C1617       C  0.28503612  0.54854431  0.15465264     0.29270
C1618       C  0.27167524  0.54340875  0.18995262    -0.21550
C1619       C  0.25983078  0.50941357  0.20231135    -0.09600
C1620       C  0.26094903  0.48045329  0.17743251     0.29270
F1621       F  0.24975912  0.44704765  0.18796743    -0.20130
H1622       H  0.27159963  0.46367339  0.12227136     0.17640
H1623       H  0.27058321  0.56643101  0.20791298     0.17640
F1624       F  0.29644913  0.58220620  0.14512456    -0.20120
C1625       C  0.28471348  0.64491592  0.96045893    -0.21550
C1626       C  0.29088440  0.63007488  0.99558995    -0.09590
C1627       C  0.28631867  0.65347766  0.02535554     0.29270
C1628       C  0.27270070  0.68911133  0.02050773    -0.21550
C1629       C  0.26658173  0.70413311  0.98572580    -0.09600
C1630       C  0.27365982  0.68191169  0.95550226     0.29270
F1631       F  0.26827593  0.69551494  0.92135886    -0.20130
H1632       H  0.28601804  0.62736358  0.93709618     0.17640
H1633       H  0.26732457  0.70525073  0.04430497     0.17640
F1634       F  0.29072186  0.64029222  0.05983269    -0.20120
C1635       C  0.25525497  0.32329872  0.97301182    -0.21550
C1636       C  0.24391100  0.31195412  0.00751666    -0.09590
C1637       C  0.25405637  0.33325396  0.03753359     0.29270
C1638       C  0.27010888  0.36766490  0.03230717    -0.21550
C1639       C  0.27862755  0.38026923  0.99717830    -0.09600
C1640       C  0.27356189  0.35601500  0.96806587     0.29270
F1641       F  0.28296063  0.36588045  0.93375291    -0.20130
H1642       H  0.25025357  0.30639144  0.94969319     0.17640
H1643       H  0.27301563  0.38548139  0.05528256     0.17640
F1644       F  0.24571176  0.32211873  0.07169333    -0.20120
C1645       C  0.16227944  0.55636448  0.13893765    -0.21550
C1646       C  0.17382920  0.52247207  0.12572494    -0.09590
C1647       C  0.16750015  0.49049787  0.14551062     0.29270
C1648       C  0.14378635  0.49180069  0.17450661    -0.21550
C1649       C  0.12579314  0.52467941  0.18243950    -0.09600
C1650       C  0.13804213  0.55746657  0.16787213     0.29270
F1651       F  0.12260632  0.58971066  0.17795640    -0.20130
H1652       H  0.16854055  0.58131789  0.12453639     0.17640
H1653       H  0.13498624  0.46647336  0.18661930     0.17640
F1654       F  0.18091140  0.45772354  0.13435540    -0.20120
C1655       C  0.10884527  0.42791037  0.02491449    -0.21550
C1656       C  0.14550348  0.41584159  0.02685079    -0.09590
C1657       C  0.15452812  0.37983009  0.03612870     0.29270
C1658       C  0.12690248  0.35490590  0.04055358    -0.21550
C1659       C  0.09017938  0.36650189  0.03624023    -0.09600
C1660       C  0.08115055  0.40336343  0.03005723     0.29270
F1661       F  0.04565873  0.41530826  0.02683559    -0.20130
H1662       H  0.10176565  0.45626574  0.01918288     0.17640
H1663       H  0.13410703  0.32666709  0.04661772     0.17640
F1664       F  0.18974204  0.36951530  0.04268443    -0.20120
C1665       C  0.17343949  0.63327848  0.98145526    -0.21550
C1666       C  0.16045969  0.59978154  0.99391333    -0.09590
C1667       C  0.12531043  0.58874681  0.98275801     0.29270
C1668       C  0.10425277  0.61021402  0.95905388    -0.21550
C1669       C  0.11474178  0.64565212  0.95128341    -0.09600
C1670       C  0.15024015  0.65653406  0.96078609     0.29270
F1671       F  0.16072915  0.69090227  0.95348849    -0.20130
H1672       H  0.20070502  0.64201991  0.98886486     0.17640
H1673       H  0.07645707  0.60190672  0.95291086     0.17640
F1674       F  0.10987167  0.55847244  0.99679333    -0.20120
C1675       C  0.15669617  0.55097685  0.73884640    -0.21550
C1676       C  0.13564479  0.51939291  0.74062856    -0.09590
C1677       C  0.15361725  0.48628273  0.75053921     0.29270
C1678       C  0.19152216  0.48531524  0.75955269    -0.21550
C1679       C  0.21213115  0.51729602  0.75875887    -0.09600
C1680       C  0.19435782  0.54998981  0.74755550     0.29270
F1681       F  0.21314014  0.58141449  0.74662861    -0.20130
H1682       H  0.14339855  0.57701715  0.73233138     0.17640
H1683       H  0.20462489  0.45968821  0.76773864     0.17640
F1684       F  0.13408700  0.45548335  0.75397592    -0.20120
C1685       C  0.05844370  0.37171142  0.72432336    -0.21550
C1686       C  0.02406912  0.38637383  0.71212403    -0.09590
C1687       C  0.99447402  0.36219101  0.71144048     0.29270
C1688       C  0.99698064  0.32846858  0.73003778    -0.21550
C1689       C  0.03034374  0.31540663  0.74571575    -0.09600
C1690       C  0.06157645  0.33679279  0.74091938     0.29270
F1691       F  0.09488842  0.32452849  0.75358890    -0.20130
H1692       H  0.08194802  0.38920227  0.72560892     0.17640
H1693       H  0.97261495  0.31230380  0.73205937     0.17640
F1694       F  0.96084101  0.37442596  0.69951613    -0.20120
C1695       C  0.04599254  0.70289669  0.72651232    -0.21550
C1696       C  0.01514030  0.71656244  0.74523238    -0.09590
C1697       C  0.98531412  0.69355421  0.75044664     0.29270
C1698       C  0.98713472  0.65733549  0.73860560    -0.21550
C1699       C  0.01920807  0.64273266  0.72252631    -0.09600
C1700       C  0.04797938  0.66660588  0.71514314     0.29270
F1701       F  0.07995988  0.65352837  0.70101336    -0.20130
H1702       H  0.06904971  0.72028975  0.72146056     0.17640
H1703       H  0.96511758  0.63944570  0.74603408     0.17640
F1704       F  0.95466307  0.70586696  0.76757988    -0.20120
C1705       C  0.87735758  0.47200445  0.73292728    -0.21550
C1706       C  0.89921462  0.50319134  0.73253535    -0.09590
C1707       C  0.88220700  0.53662717  0.74208432     0.29270
C1708       C  0.84500212  0.53821088  0.75312906    -0.21550
C1709       C  0.82361265  0.50670192  0.75433302    -0.09600
C1710       C  0.84017269  0.47372163  0.74324702     0.29270
F1711       F  0.82057591  0.44280123  0.74340184    -0.20130
H1712       H  0.88958408  0.44573677  0.72643088     0.17640
H1713       H  0.83289523  0.56410680  0.76098150     0.17640
F1714       F  0.90223257  0.56723430  0.74351364    -0.20120
C1715       C  0.13803642  0.54053273  0.86370528    -0.21550
C1716       C  0.10029178  0.53880649  0.86975549    -0.09590
C1717       C  0.08733755  0.52670653  0.90348719     0.29270
C1718       C  0.11213209  0.51476466  0.93044448    -0.21550
C1719       C  0.15001954  0.51547051  0.92420792    -0.09600
C1720       C  0.16287810  0.52930959  0.89091759     0.29270
F1721       F  0.19935338  0.53160940  0.88442509    -0.20130
H1722       H  0.14820294  0.54886590  0.83736401     0.17640
H1723       H  0.10173756  0.50383375  0.95570061     0.17640
F1724       F  0.05068568  0.52429701  0.90945739    -0.20120
C1725       C  0.06435133  0.41656430  0.89838454    -0.21550
C1726       C  0.05106106  0.41227488  0.86308687    -0.09590
C1727       C  0.03023802  0.38184794  0.85459145     0.29270
C1728       C  0.01494191  0.36194756  0.88266885    -0.21550
C1729       C  0.02183211  0.37175066  0.91861230    -0.09600
C1730       C  0.04902841  0.39667915  0.92629190     0.29270
F1731       F  0.05949183  0.40306923  0.96056737    -0.20130
H1732       H  0.08150458  0.43928940  0.90498679     0.17640
H1733       H  0.99586404  0.34067946  0.87640793     0.17640
F1734       F  0.01872215  0.37591994  0.82004999    -0.20120
C1735       C  0.95932919  0.63309479  0.84811193    -0.21550
C1736       C  0.95795831  0.59567681  0.85522231    -0.09590
C1737       C  0.94971429  0.58334564  0.89048472     0.29270
C1738       C  0.95536342  0.60638503  0.91947414    -0.21550
C1739       C  0.96685034  0.64179236  0.91252104    -0.09600
C1740       C  0.96402188  0.65648262  0.87701916     0.29270
F1741       F  0.97253496  0.69156117  0.86964666    -0.20130
H1742       H  0.96384786  0.64333988  0.82082023     0.17640
H1743       H  0.95527053  0.59536647  0.94693999     0.17640
F1744       F  0.94413227  0.54752671  0.89738566    -0.20120
C1745       C  0.72774431  0.35780854  0.03794419    -0.21550
C1746       C  0.72598365  0.38332127  0.00869810    -0.09590
C1747       C  0.73426391  0.36968738  0.97384980     0.29270
C1748       C  0.74634675  0.33280408  0.96939818    -0.21550
C1749       C  0.75084875  0.30857065  0.99948000    -0.09600
C1750       C  0.74038661  0.32165616  0.03362563     0.29270
F1751       F  0.74344784  0.29955622  0.06340185    -0.20130
H1752       H  0.72157285  0.36645125  0.06526637     0.17640
H1753       H  0.75290705  0.32343420  0.94244603     0.17640
F1754       F  0.73343947  0.39246426  0.94452003    -0.20120
C1755       C  0.76462557  0.64606170  0.03367174    -0.21550
C1756       C  0.74961785  0.62790731  0.00371408    -0.09590
C1757       C  0.74710663  0.64685804  0.97023776     0.29270
C1758       C  0.76080743  0.68206559  0.96649586    -0.21550
C1759       C  0.77616706  0.70005581  0.99626869    -0.09600
C1760       C  0.77726339  0.68184851  0.03020486     0.29270
F1761       F  0.79142293  0.69825202  0.05982026    -0.20130
H1762       H  0.76884388  0.63156276  0.05926663     0.17640
H1763       H  0.76006863  0.69514201  0.93997091     0.17640
F1764       F  0.73496515  0.62975608  0.94011100    -0.20120
C1765       C  0.74683742  0.54578257  0.13715281    -0.21550
C1766       C  0.73457144  0.51239471  0.12378992    -0.09590
C1767       C  0.73463685  0.48239618  0.14815078     0.29270
C1768       C  0.74980942  0.48468574  0.18309926    -0.21550
C1769       C  0.76264102  0.51764247  0.19637688    -0.09600
C1770       C  0.75990459  0.54861460  0.17335139     0.29270
F1771       F  0.77110645  0.58125097  0.18545714    -0.20130
H1772       H  0.74892134  0.56893729  0.11883905     0.17640
H1773       H  0.75128227  0.46040782  0.20005876     0.17640
F1774       F  0.72439740  0.44926946  0.13632848    -0.20120
C1775       C  0.76957389  0.54988145  0.81700113    -0.21550
C1776       C  0.77396579  0.51443000  0.80391330    -0.09590
C1777       C  0.76848348  0.48494614  0.82793165     0.29270
C1778       C  0.76031237  0.49099153  0.86475162    -0.21550
C1779       C  0.75764828  0.52656806  0.87830391    -0.09600
C1780       C  0.76157544  0.55597025  0.85365323     0.29270
F1781       F  0.75921149  0.59078511  0.86542407    -0.20130
H1782       H  0.77301508  0.57296437  0.79885763     0.17640
H1783       H  0.75854226  0.46784699  0.88312987     0.17640
F1784       F  0.77231140  0.45030343  0.81602934    -0.20120
C1785       C  0.92363053  0.43302453  0.87710419    -0.21550
C1786       C  0.91744698  0.45576738  0.84680739    -0.09590
C1787       C  0.88654496  0.47916455  0.84490143     0.29270
C1788       C  0.86443951  0.48317970  0.87496421    -0.21550
C1789       C  0.87418481  0.46497599  0.90744180    -0.09600
C1790       C  0.90253062  0.43816674  0.90791809     0.29270
F1791       F  0.91211924  0.41959156  0.93886789    -0.20130
H1792       H  0.94786265  0.41522795  0.87882237     0.17640
H1793       H  0.84253542  0.50374771  0.87400177     0.17640
F1794       F  0.88121902  0.50216328  0.81621847    -0.20120
C1795       C  0.85132077  0.49182429  0.12928355    -0.21550
C1796       C  0.85775463  0.46233369  0.10614711    -0.09590
C1797       C  0.89175011  0.44394304  0.10641807     0.29270
C1798       C  0.92076382  0.45859593  0.12509004    -0.21550
C1799       C  0.91609256  0.49170160  0.14337696    -0.09600
C1800       C  0.88066671  0.50686516  0.14775240     0.29270
F1801       F  0.87475627  0.53718420  0.16772566    -0.20130
H1802       H  0.82479571  0.50596990  0.12951326     0.17640
H1803       H  0.94733824  0.44496632  0.12344551     0.17640
F1804       F  0.89787401  0.41450759  0.08517341    -0.20120
C1805       C  0.82707883  0.35466958  0.00784740    -0.21550
C1806       C  0.81937238  0.38204219  0.98213429    -0.09590
C1807       C  0.83297476  0.37882542  0.94660633     0.29270
C1808       C  0.86130495  0.35356707  0.94004202    -0.21550
C1809       C  0.87488871  0.33195827  0.96895959    -0.09600
C1810       C  0.85492012  0.32962434  0.00141357     0.29270
F1811       F  0.86662168  0.30781459  0.02950834    -0.20130
H1812       H  0.81546871  0.35566637  0.03482134     0.17640
H1813       H  0.87571757  0.35463639  0.91444806     0.17640
F1814       F  0.82250883  0.40289367  0.91994420    -0.20120
C1815       C  0.87484770  0.62029777  0.01150880    -0.21550
C1816       C  0.88807222  0.58438917  0.01682075    -0.09590
C1817       C  0.92230558  0.57805454  0.03424755     0.29270
C1818       C  0.94413438  0.60755382  0.04342564    -0.21550
C1819       C  0.93166640  0.64334249  0.03570643    -0.09600
C1820       C  0.89639746  0.64946131  0.02094996     0.29270
F1821       F  0.88372903  0.68374970  0.01369672    -0.20130
H1822       H  0.84807718  0.62584882  0.99908414     0.17640
H1823       H  0.97177636  0.60240862  0.05393156     0.17640
F1824       F  0.93575533  0.54361825  0.03980050    -0.20120
C1825       C  0.25343172  0.53886387  0.64323318    -0.21550
C1826       C  0.24811820  0.50344180  0.63041082    -0.09590
C1827       C  0.24920384  0.47461572  0.65616642     0.29270
C1828       C  0.25943415  0.48041362  0.69243859    -0.21550
C1829       C  0.26870908  0.51511743  0.70442374    -0.09600
C1830       C  0.26407361  0.54467636  0.67979320     0.29270
F1831       F  0.27107264  0.57893575  0.69066604    -0.20130
H1832       H  0.25304253  0.56161124  0.62419553     0.17640
H1833       H  0.26116549  0.45740545  0.71115087     0.17640
F1834       F  0.24358824  0.44001990  0.64533527    -0.20120
C1835       C  0.25150600  0.48322711  0.36878912    -0.21550
C1836       C  0.23733325  0.51656424  0.38219472    -0.09590
C1837       C  0.23384383  0.54594849  0.35721378     0.29270
C1838       C  0.24627850  0.54286582  0.32115039    -0.21550
C1839       C  0.26316709  0.51053736  0.30863582    -0.09600
C1840       C  0.26441520  0.48025562  0.33265972     0.29270
F1841       F  0.27961396  0.44818767  0.32170272    -0.20130
H1842       H  0.25602248  0.46036993  0.38733714     0.17640
H1843       H  0.24344840  0.56625496  0.30305378     0.17640
F1844       F  0.22043703  0.57862729  0.36849291    -0.20120
C1845       C  0.23937731  0.66102781  0.47347716    -0.21550
C1846       C  0.24559890  0.63647528  0.50269264    -0.09590
C1847       C  0.25968444  0.65046757  0.53536169     0.29270
C1848       C  0.26937085  0.68741548  0.53768539    -0.21550
C1849       C  0.26577993  0.71109362  0.50735756    -0.09600
C1850       C  0.25014486  0.69729414  0.47529182     0.29270
F1851       F  0.24826685  0.71785085  0.44443376    -0.20130
H1852       H  0.23038772  0.65088427  0.44742002     0.17640
H1853       H  0.28124979  0.69715078  0.56271744     0.17640
F1854       F  0.26782151  0.62756168  0.56371084    -0.20120
C1855       C  0.24158027  0.36650391  0.53652424    -0.21550
C1856       C  0.24468113  0.38942460  0.50582214    -0.09590
C1857       C  0.25988441  0.37444766  0.47410327     0.29270
C1858       C  0.27250789  0.33787130  0.47362783    -0.21550
C1859       C  0.27040217  0.31548273  0.50480124    -0.09600
C1860       C  0.25423228  0.33012902  0.53611727     0.29270
F1861       F  0.25177991  0.30946794  0.56679663    -0.20130
H1862       H  0.23193750  0.37768402  0.56190338     0.17640
H1863       H  0.28420838  0.32705709  0.44896078     0.17640
F1864       F  0.26545241  0.39607970  0.44458477    -0.20120
C1865       C  0.48593360  0.65778013  0.76961445    -0.21550
C1866       C  0.52157757  0.64175852  0.76742988    -0.09590
C1867       C  0.55021632  0.66466439  0.75610272     0.29270
C1868       C  0.54305199  0.70047664  0.74401280    -0.21550
C1869       C  0.50783433  0.71660110  0.74597927    -0.09600
C1870       C  0.47931307  0.69507241  0.75993739     0.29270
F1871       F  0.44482171  0.70965733  0.76279749    -0.20130
H1872       H  0.46295085  0.64110616  0.77691290     0.17640
H1873       H  0.56559026  0.71610294  0.73359614     0.17640
F1874       F  0.58534892  0.65133859  0.75404854    -0.20120
C1875       C  0.65586791  0.48318464  0.76753772    -0.21550
C1876       C  0.63916552  0.51807449  0.77071623    -0.09590
C1877       C  0.66195023  0.54826909  0.76537328     0.29270
C1878       C  0.69919162  0.54375025  0.75517893    -0.21550
C1879       C  0.71539889  0.50900969  0.75007415    -0.09600
C1880       C  0.69348646  0.47866576  0.75791492     0.29270
F1881       F  0.70821558  0.44450877  0.75580493    -0.20130
H1882       H  0.63926855  0.45931149  0.77053629     0.17640
H1883       H  0.71528917  0.56768556  0.75034351     0.17640
F1884       F  0.64730652  0.58252416  0.76729982    -0.20120
C1885       C  0.37579913  0.49380848  0.78185511    -0.21550
C1886       C  0.39395328  0.52725643  0.78122316    -0.09590
C1887       C  0.37336326  0.55823117  0.76874953     0.29270
C1888       C  0.33657679  0.55560940  0.75653187    -0.21550
C1889       C  0.31918129  0.52192757  0.75557348    -0.09600
C1890       C  0.33912775  0.49108321  0.76912675     0.29270
F1891       F  0.32360572  0.45792171  0.76870002    -0.20130
H1892       H  0.39108275  0.46906114  0.78919643     0.17640
H1893       H  0.32187232  0.57994902  0.74697895     0.17640
F1894       F  0.39000960  0.59072870  0.76546691    -0.20120
C1895       C  0.47056847  0.37848000  0.76328485    -0.21550
C1896       C  0.50153710  0.39980504  0.77054778    -0.09590
C1897       C  0.53653272  0.38436856  0.76265071     0.29270
C1898       C  0.54001307  0.34928657  0.74736659    -0.21550
C1899       C  0.50884141  0.32863821  0.73927080    -0.09600
C1900       C  0.47408394  0.34361133  0.74803545     0.29270
F1901       F  0.44330031  0.32446591  0.74173625    -0.20130
H1902       H  0.44317479  0.38928421  0.76860242     0.17640
H1903       H  0.56720096  0.33825151  0.74156748     0.17640
F1904       F  0.56734794  0.40367705  0.76823323    -0.20120
C1905       C  0.38564593  0.55300706  0.64469171    -0.21550
C1906       C  0.42327665  0.54757834  0.63813883    -0.09590
C1907       C  0.43596099  0.54742027  0.60238192     0.29270
C1908       C  0.41093193  0.54790726  0.57368427    -0.21550
C1909       C  0.37287587  0.54835189  0.58015894    -0.09600
C1910       C  0.36051192  0.55414055  0.61570156     0.29270
F1911       F  0.32421788  0.55671660  0.62288024    -0.20130
H1912       H  0.37550516  0.55298582  0.67228939     0.17640
H1913       H  0.42155794  0.54338487  0.54670507     0.17640
F1914       F  0.47191625  0.54059490  0.59511426    -0.20120
C1915       C  0.78136009  0.64916356  0.48187276    -0.21550
C1916       C  0.78882837  0.63546467  0.51735780    -0.09590
C1917       C  0.78307964  0.65995689  0.54636557     0.29270
C1918       C  0.76781171  0.69509012  0.54038468    -0.21550
C1919       C  0.75938217  0.70842899  0.50529473    -0.09600
C1920       C  0.76745894  0.68528950  0.47587850     0.29270
F1921       F  0.76116651  0.69737829  0.44132888    -0.20130
H1922       H  0.78465652  0.63142841  0.45883304     0.17640
H1923       H  0.76341768  0.71244582  0.56352569     0.17640
F1924       F  0.79071399  0.64956281  0.58122850    -0.20120
C1925       C  0.77332780  0.47132572  0.64177828    -0.21550
C1926       C  0.79308080  0.50006514  0.62609956    -0.09590
C1927       C  0.80105250  0.52962409  0.64858075     0.29270
C1928       C  0.78718892  0.53172497  0.68402204    -0.21550
C1929       C  0.76661365  0.50353529  0.69941588    -0.09600
C1930       C  0.76057191  0.47278102  0.67791999     0.29270
F1931       F  0.74156340  0.44446180  0.69134454    -0.20130
H1932       H  0.76482710  0.44908597  0.62488511     0.17640
H1933       H  0.79216611  0.55595910  0.69951279     0.17640
F1934       F  0.81810319  0.55897880  0.63448347    -0.20120
C1935       C  0.77965964  0.33328876  0.46913407    -0.21550
C1936       C  0.75689283  0.31716171  0.49536088    -0.09590
C1937       C  0.74462074  0.33922418  0.52411121     0.29270
C1938       C  0.75459956  0.37593579  0.52622519    -0.21550
C1939       C  0.77721613  0.39203025  0.49999874    -0.09600
C1940       C  0.78967812  0.37003442  0.47136929     0.29270
F1941       F  0.80937312  0.38484620  0.44403106    -0.20130
H1942       H  0.78911907  0.31750094  0.44628819     0.17640
H1943       H  0.74271701  0.39258425  0.54738667     0.17640
F1944       F  0.72251095  0.32568395  0.55012331    -0.20120
C1945       C  0.77851223  0.47949787  0.35157271    -0.21550
C1946       C  0.77647393  0.50858477  0.37604551    -0.09590
C1947       C  0.76646708  0.54339426  0.36209247     0.29270
C1948       C  0.75678789  0.54829291  0.32504495    -0.21550
C1949       C  0.75681350  0.51858429  0.30131786    -0.09600
C1950       C  0.76854006  0.48424887  0.31492327     0.29270
F1951       F  0.76874004  0.45483911  0.29301921    -0.20130
H1952       H  0.78467616  0.45215443  0.36167242     0.17640
H1953       H  0.74839442  0.57511050  0.31505545     0.17640
F1954       F  0.76256569  0.57188477  0.38490564    -0.20120
C1955       C  0.64299314  0.49438502  0.60192652    -0.21550
C1956       C  0.66629951  0.52353859  0.60737204    -0.09590
C1957       C  0.67213137  0.53665722  0.64234813     0.29270
C1958       C  0.64986936  0.52484378  0.67038067    -0.21550
C1959       C  0.62285972  0.49894639  0.66394397    -0.09600
C1960       C  0.62189483  0.48141161  0.63029020     0.29270
F1961       F  0.59722547  0.45522783  0.62326802    -0.20130
H1962       H  0.64044819  0.48225762  0.57546589     0.17640
H1963       H  0.65075244  0.53917112  0.69564183     0.17640
F1964       F  0.69627128  0.56354334  0.64844781    -0.20120
C1965       C  0.68662435  0.77119579  0.47523999    -0.21550
C1966       C  0.70991897  0.76289816  0.50529219    -0.09590
C1967       C  0.69845135  0.77506423  0.53955308     0.29270
C1968       C  0.66371308  0.79220292  0.54400448    -0.21550
C1969       C  0.63886750  0.79795555  0.51451640    -0.09600
C1970       C  0.65185244  0.78885187  0.47956216     0.29270
F1971       F  0.62964848  0.79366072  0.44992798    -0.20130
H1972       H  0.69528133  0.76361096  0.44826643     0.17640
H1973       H  0.65527730  0.79881240  0.57131093     0.17640
F1974       F  0.72075000  0.76991026  0.56906394    -0.20120
C1975       C  0.53354211  0.79617390  0.64459833    -0.21550
C1976       C  0.50435333  0.78761587  0.62101303    -0.09590
C1977       C  0.47396939  0.77007401  0.63638083     0.29270
C1978       C  0.47322633  0.76112696  0.67391313    -0.21550
C1979       C  0.50307598  0.76867509  0.69710208    -0.09600
C1980       C  0.53332152  0.78640211  0.68172623     0.29270
F1981       F  0.56403383  0.79186165  0.70198284    -0.20130
H1982       H  0.55841671  0.80727824  0.63345651     0.17640
H1983       H  0.44982157  0.74702873  0.68465020     0.17640
F1984       F  0.44636333  0.75877902  0.61450118    -0.20120
C1985       C  0.33900518  0.77872186  0.53003412    -0.21550
C1986       C  0.31933787  0.75691343  0.50542070    -0.09590
C1987       C  0.33815683  0.74403750  0.47484749     0.29270
C1988       C  0.37486078  0.75247011  0.46903227    -0.21550
C1989       C  0.39520785  0.77321632  0.49377387    -0.09600
C1990       C  0.37664285  0.78660926  0.52448763     0.29270
F1991       F  0.39498284  0.80595991  0.54967597    -0.20130
H1992       H  0.32523520  0.78939861  0.55370668     0.17640
H1993       H  0.38779199  0.74174472  0.44489662     0.17640
F1994       F  0.32085403  0.72409140  0.44947950    -0.20120
C1995       C  0.49331633  0.78372771  0.30769397    -0.21550
C1996       C  0.52613555  0.76587135  0.29723875    -0.09590
C1997       C  0.55490641  0.76237553  0.32307491     0.29270
C1998       C  0.54988637  0.77440917  0.35904696    -0.21550
C1999       C  0.51594549  0.78985289  0.37017750    -0.09600
C2000       C  0.48839782  0.79588542  0.34335610     0.29270
F2001       F  0.45489717  0.80968295  0.35283979    -0.20130
H2002       H  0.47071602  0.78699518  0.28844840     0.17640
H2003       H  0.57118261  0.76803391  0.37911871     0.17640
F2004       F  0.58722079  0.74574548  0.31401779    -0.20120
C2005       C  0.44967916  0.61814940  0.43421777    -0.21550
C2006       C  0.45349837  0.63727514  0.46667323    -0.09590
C2007       C  0.43280903  0.62861159  0.49708922     0.29270
C2008       C  0.40829112  0.60069415  0.49495345    -0.21550
C2009       C  0.40581026  0.58016810  0.46326885    -0.09600
C2010       C  0.42608362  0.58906243  0.43257618     0.29270
F2011       F  0.42150835  0.57113040  0.40092883    -0.20130
H2012       H  0.46492408  0.62581594  0.41041620     0.17640
H2013       H  0.39072448  0.59542285  0.51787524     0.17640
F2014       F  0.43501328  0.64825223  0.52799623    -0.20120
C2015       C  0.58203687  0.63727847  0.59552344    -0.21550
C2016       C  0.55094281  0.65987296  0.58964302    -0.09590
C2017       C  0.51590810  0.64846574  0.59895035     0.29270
C2018       C  0.51191937  0.61387936  0.61325461    -0.21550
C2019       C  0.54282985  0.59079052  0.61819757    -0.09600
C2020       C  0.57801201  0.60282276  0.61032117     0.29270
F2021       F  0.60826552  0.58181439  0.61811099    -0.20130
H2022       H  0.60903058  0.64579822  0.58713717     0.17640
H2023       H  0.48492023  0.60558677  0.62176812     0.17640
F2024       F  0.48552374  0.66978848  0.59182970    -0.20120
C2025       C  0.65548466  0.68075831  0.47191199    -0.21550
C2026       C  0.64583071  0.69919014  0.50356723    -0.09590
C2027       C  0.66412384  0.69055615  0.53660153     0.29270
C2028       C  0.68764419  0.66059575  0.53885330    -0.21550
C2029       C  0.69383084  0.63941393  0.50826569    -0.09600
C2030       C  0.67957299  0.65080457  0.47415494     0.29270
F2031       F  0.68640710  0.63147065  0.44368842    -0.20130
H2032       H  0.64210665  0.68752878  0.44616886     0.17640
H2033       H  0.69921037  0.65271938  0.56514517     0.17640
F2034       F  0.65664909  0.70871456  0.56766416    -0.20120
C2035       C  0.64906404  0.55324396  0.23200100    -0.21550
C2036       C  0.63367130  0.51972004  0.22292142    -0.09590
C2037       C  0.65632741  0.48813080  0.22607123     0.29270
C2038       C  0.69172188  0.48951845  0.24114187    -0.21550
C2039       C  0.70715123  0.52277430  0.25028425    -0.09600
C2040       C  0.68579249  0.55490575  0.24468299     0.29270
F2041       F  0.69985595  0.58760468  0.25305496    -0.20130
H2042       H  0.63186718  0.57774085  0.23181051     0.17640
H2043       H  0.70734170  0.46434503  0.24555646     0.17640
F2044       F  0.64236103  0.45505748  0.21883557    -0.20120
C2045       C  0.36234337  0.55709537  0.24193812    -0.21550
C2046       C  0.38701536  0.52878333  0.23157796    -0.09590
C2047       C  0.37424292  0.49282284  0.23396960     0.29270
C2048       C  0.33844576  0.48589581  0.24694441    -0.21550
C2049       C  0.31499152  0.51434987  0.25909853    -0.09600
C2050       C  0.32755022  0.55003502  0.25624456     0.29270
F2051       F  0.30594841  0.57840510  0.26715302    -0.20130
H2052       H  0.37075104  0.58512628  0.24102607     0.17640
H2053       H  0.32912676  0.45816352  0.24793372     0.17640
F2054       F  0.39668270  0.46426961  0.22523062    -0.20120
C2055       C  0.55931422  0.36354348  0.23081188    -0.21550
C2056       C  0.52864260  0.38803693  0.23095853    -0.09590
C2057       C  0.49547040  0.37480196  0.24507757     0.29270
C2058       C  0.49406447  0.33920345  0.26038704    -0.21550
C2059       C  0.52566233  0.31600019  0.26222653    -0.09600
C2060       C  0.55809140  0.32861301  0.24660072     0.29270
F2061       F  0.58905268  0.30714612  0.24713453    -0.20130
H2062       H  0.58555166  0.37267732  0.22094474     0.17640
H2063       H  0.46823530  0.32971877  0.27086050     0.17640
F2064       F  0.46509795  0.39697614  0.24632765    -0.20120
C2065       C  0.48639298  0.66165125  0.24029930    -0.21550
C2066       C  0.51587087  0.63908409  0.22857689    -0.09590
C2067       C  0.55098307  0.65437840  0.22706330     0.29270
C2068       C  0.55604660  0.69100343  0.23729080    -0.21550
C2069       C  0.52662270  0.71249427  0.25103673    -0.09600
C2070       C  0.49176974  0.69705868  0.25246694     0.29270
F2071       F  0.46252052  0.71646191  0.26528407    -0.20130
H2072       H  0.45924361  0.65048621  0.24322076     0.17640
H2073       H  0.58313239  0.70240112  0.23528854     0.17640
F2074       F  0.58063317  0.63340468  0.21796995    -0.20120
C2075       C  0.37199646  0.54339884  0.33041613    -0.21550
C2076       C  0.39373990  0.51203025  0.32393945    -0.09590
C2077       C  0.38310215  0.47843792  0.33803039     0.29270
C2078       C  0.35435112  0.47725044  0.36244696    -0.21550
C2079       C  0.33683784  0.50972239  0.37353060    -0.09600
C2080       C  0.34309067  0.54218605  0.35462731     0.29270
F2081       F  0.32492325  0.57361516  0.36305793    -0.20130
H2082       H  0.37905797  0.56955037  0.31892008     0.17640
H2083       H  0.34905600  0.45160061  0.37604579     0.17640
F2084       F  0.40300225  0.44761700  0.33183488    -0.20120
C2085       C  0.55888598  0.62060600  0.39929485    -0.21550
C2086       C  0.54763365  0.65732255  0.39562123    -0.09590
C2087       C  0.52160900  0.66733848  0.36846783     0.29270
C2088       C  0.50514563  0.64050116  0.34775890    -0.21550
C2089       C  0.51324748  0.60354307  0.35510149    -0.09600
C2090       C  0.54087811  0.59395073  0.38049503     0.29270
F2091       F  0.55045860  0.55876936  0.38763314    -0.20130
H2092       H  0.57937892  0.61191758  0.41943012     0.17640
H2093       H  0.48485612  0.64846642  0.32718446     0.17640
F2094       F  0.50996624  0.70234848  0.36368783    -0.20120
C2095       C  0.59285639  0.48959076  0.40080814    -0.21550
C2096       C  0.60533920  0.48617589  0.36534856    -0.09590
C2097       C  0.64011991  0.49834574  0.35558943     0.29270
C2098       C  0.66087504  0.51696893  0.38093806    -0.21550
C2099       C  0.64610747  0.52437221  0.41521165    -0.09600
C2100       C  0.61213064  0.51002305  0.42514594     0.29270
F2101       F  0.59695784  0.51619183  0.45809325    -0.20130
H2102       H  0.56574781  0.48047353  0.40820121     0.17640
H2103       H  0.68751264  0.52700147  0.37335409     0.17640
F2104       F  0.65212643  0.49554895  0.32091689    -0.20120
C2105       C  0.49463817  0.26272162  0.62831918    -0.21550
C2106       C  0.53022887  0.25227620  0.61726322    -0.09590
C2107       C  0.55979601  0.25545104  0.64191873     0.29270
C2108       C  0.55418315  0.27044251  0.67608292    -0.21550
C2109       C  0.51899332  0.28241832  0.68655677    -0.09600
C2110       C  0.48905992  0.27796000  0.66263693     0.29270
F2111       F  0.45447726  0.28800058  0.67264956    -0.20130
H2112       H  0.47163139  0.26167780  0.60943672     0.17640
H2113       H  0.57723186  0.27203354  0.69485848     0.17640
F2114       F  0.59452827  0.24558856  0.63213095    -0.20120
C2115       C  0.55406340  0.25390015  0.33141787    -0.21550
C2116       C  0.52170661  0.26380767  0.31197204    -0.09590
C2117       C  0.48822209  0.25017788  0.32406860     0.29270
C2118       C  0.48759396  0.22506735  0.35278006    -0.21550
C2119       C  0.51842042  0.22019041  0.37603209    -0.09600
C2120       C  0.55229394  0.23305108  0.36376487     0.29270
F2121       F  0.58299594  0.22776657  0.38449158    -0.20130
H2122       H  0.58052631  0.26235538  0.32157613     0.17640
H2123       H  0.46094705  0.21585556  0.36153190     0.17640
F2124       F  0.45623145  0.25961092  0.30657114    -0.20120
C2125       C  0.36289798  0.22759581  0.46177866    -0.21550
C2126       C  0.38878558  0.22448383  0.49071979    -0.09590
C2127       C  0.37807090  0.23873426  0.52460866     0.29270
C2128       C  0.34377421  0.25748678  0.52822958    -0.21550
C2129       C  0.31946118  0.26246121  0.49831736    -0.09600
C2130       C  0.32966312  0.24720949  0.46508259     0.29270
F2131       F  0.30691674  0.25080304  0.43567854    -0.20130
H2132       H  0.36954924  0.21712441  0.43521647     0.17640
H2133       H  0.33605598  0.26798668  0.55449042     0.17640
F2134       F  0.40174020  0.23721072  0.55336854    -0.20120
C2135       C  0.65519477  0.24063032  0.52434309    -0.21550
C2136       C  0.63518833  0.23942977  0.49149920    -0.09590
C2137       C  0.65294957  0.25058276  0.45949331     0.29270
C2138       C  0.68948971  0.26250265  0.46047006    -0.21550
C2139       C  0.70877809  0.26516300  0.49356718    -0.09600
C2140       C  0.69110327  0.25384590  0.52558314     0.29270
F2141       F  0.70793156  0.25672188  0.55842743    -0.20130
H2142       H  0.64168109  0.23448639  0.54973179     0.17640
H2143       H  0.70239912  0.27080841  0.43540903     0.17640
F2144       F  0.63399402  0.25276457  0.42764501    -0.20120
C2145       C  0.51625062  0.35459653  0.38396894    -0.21550
C2146       C  0.48043620  0.34199132  0.38650759    -0.09590
C2147       C  0.45284436  0.35413470  0.36224795     0.29270
C2148       C  0.46009715  0.38293438  0.33868474    -0.21550
C2149       C  0.49424573  0.39954423  0.34082662    -0.09600
C2150       C  0.52317505  0.38375162  0.36129146     0.29270
F2151       F  0.55681122  0.39900315  0.36233491    -0.20130
H2152       H  0.53784521  0.34436230  0.40223514     0.17640
H2153       H  0.43848955  0.39390031  0.32108233     0.17640
F2154       F  0.41849780  0.34064100  0.36380235    -0.20120
C2155       C  0.38551523  0.34055674  0.53691225    -0.21550
C2156       C  0.39086190  0.32862749  0.50104384    -0.09590
C2157       C  0.37462168  0.34833123  0.47207968     0.29270
C2158       C  0.35941572  0.38241499  0.47833067    -0.21550
C2159       C  0.36024962  0.39740632  0.51334747    -0.09600
C2160       C  0.36935403  0.37485297  0.54317700     0.29270
F2161       F  0.36679197  0.38733176  0.57760064    -0.20130
H2162       H  0.39692736  0.32492330  0.55970787     0.17640
H2163       H  0.34969730  0.39830549  0.45494727     0.17640
F2164       F  0.37813117  0.33737842  0.43716203    -0.20120
C2165       C  0.49945817  0.35601659  0.61698407    -0.21550
C2166       C  0.47764483  0.36523763  0.58639635    -0.09590
C2167       C  0.45498559  0.39672374  0.58622455     0.29270
C2168       C  0.45456772  0.41873923  0.61622193    -0.21550
C2169       C  0.47812998  0.41058965  0.64552705    -0.09600
C2170       C  0.50012813  0.37899786  0.64642089     0.29270
F2171       F  0.52557572  0.37306577  0.67312951    -0.20130
H2172       H  0.51897174  0.33330385  0.61653640     0.17640
H2173       H  0.43849523  0.44402517  0.61519565     0.17640
F2174       F  0.43659687  0.40853883  0.55590328    -0.20120
C2175       C  0.64179469  0.40466870  0.47192394    -0.21550
C2176       C  0.63442752  0.43819994  0.48851222    -0.09590
C2177       C  0.60120568  0.44430133  0.50691966     0.29270
C2178       C  0.57571818  0.41694389  0.50857102    -0.21550
C2179       C  0.58348843  0.38364645  0.49221599    -0.09600
C2180       C  0.61646667  0.37725586  0.47405733     0.29270
F2181       F  0.62440585  0.34433667  0.45933049    -0.20130
H2182       H  0.66748246  0.39941926  0.45801023     0.17640
H2183       H  0.55028942  0.42136965  0.52320187     0.17640
F2184       F  0.59319915  0.47654383  0.52293921    -0.20120
loop_ 
_geom_bond_atom_site_label_1 
_geom_bond_atom_site_label_2 
_geom_bond_distance 
_geom_bond_site_symmetry_2 
_ccdc_geom_bond_type 
O1            C9   1.306       .  A
O1          Co21   2.078       .  S
O2           C10   1.264       .  A
O2          Co22   1.896       .  S
O3           C11   1.242       .  A
O3          Co23   2.000       .  S
O4           C12   1.313       .  A
O4          Co24   2.133       .  S
O5           C11   1.246       .  A
O5          Co22   2.005       .  S
O6           C12   1.267       .  A
O6          Co21   1.854       .  S
O7           C10   1.311       .  A
O7          Co24   2.166       .  S
O8            C9   1.277       .  A
O8          Co23   1.843       .  S
C9         C2166   1.444       .  S
C10        C2126   1.510       .  S
C11        C2156   1.461       .  S
C12        C2106   1.472       .  S
O13          C26   1.234       .  A
O13         Co21   1.924       .  S
O14          C27   1.285       .  A
O14         Co22   2.015       .  S
O15          C28   1.249       .  A
O15         Co23   1.963       .  S
O16          C29   1.295       .  A
O16         Co24   2.119       .  S
O17          C29   1.258       .  A
O17         Co22   1.851       .  S
O18          C28   1.247       .  A
O18         Co21   1.951       .  S
O19          C26   1.271       .  A
O19         Co24   2.065       .  S
O20          C27   1.276       .  A
O20         Co23   1.996       .  S
Co21         O25   1.939       .  S
Co22         O25   1.897       .  S
Co23         O25   1.847       .  S
Co24         O25   2.130       .  S
C26        C2136   1.484       .  S
C27        C2146   1.431       .  S
C28        C2179   1.429       .  S
C29        C2119   1.466       .  S
O30          C38   1.298       .  A
O30         Co50   2.078       .  S
O31          C39   1.270       .  A
O31         Co51   1.898       .  S
O32          C40   1.253       .  A
O32         Co52   2.012       .  S
O33          C41   1.327       .  A
O33         Co53   2.195       .  S
O34          C40   1.240       .  A
O34         Co51   1.959       .  S
O35          C41   1.259       .  A
O35         Co50   1.854       .  S
O36          C39   1.313       .  A
O36         Co53   2.159       .  S
O37          C38   1.284       .  A
O37         Co52   1.857       .  S
C38        C2149   1.435       .  S
C39        C2046   1.516       .  S
C40        C2076   1.459       .  S
C41        C2056   1.507       .  S
O42          C55   1.232       .  A
O42         Co50   1.905       .  S
O43          C56   1.293       .  A
O43         Co51   2.024       .  S
O44          C57   1.246       .  A
O44         Co52   1.938       .  S
O45          C58   1.304       .  A
O45         Co53   2.156       .  S
O46          C58   1.256       .  A
O46         Co51   1.882       .  S
O47          C57   1.241       .  A
O47         Co50   1.962       .  S
O48          C55   1.271       .  A
O48         Co53   2.067       .  S
O49          C56   1.284       .  A
O49         Co52   2.006       .  S
Co50         O54   1.939       .  S
Co51         O54   1.861       .  S
Co52         O54   1.862       .  S
Co53         O54   2.126       .  S
C55        C2036   1.477       .  S
C56        C2089   1.461       .  S
C57        C2096   1.432       .  S
C58        C2066   1.494       .  S
O59          C67   1.274       .  A
O59         Co79   1.842       .  S
O60          C68   1.309       .  A
O60         Co80   2.148       .  S
O61          C69   1.263       .  A
O61         Co81   1.830       .  S
O62          C70   1.238       .  A
O62         Co82   1.961       .  S
O63          C69   1.327       .  A
O63         Co80   2.190       .  S
O64          C70   1.250       .  A
O64         Co79   1.993       .  S
O65          C68   1.273       .  A
O65         Co82   1.916       .  S
O66          C67   1.309       .  A
O66         Co81   2.094       .  S
C67        C2086   1.469       .  S
C68        C1969   1.519       .  S
C69        C1999   1.488       .  S
C70        C2026   1.453       .  S
O71          C84   1.267       .  A
O71         Co79   1.957       .  S
O72          C85   1.270       .  A
O72         Co80   2.059       .  S
O73          C86   1.246       .  A
O73         Co81   1.949       .  S
O74          C87   1.258       .  A
O74         Co82   1.904       .  S
O75          C87   1.302       .  A
O75         Co80   2.151       .  S
O76          C86   1.251       .  A
O76         Co79   1.967       .  S
O77          C84   1.292       .  A
O77         Co82   2.037       .  S
O78          C85   1.242       .  A
O78         Co81   1.929       .  S
Co79         O83   1.879       .  S
Co80         O83   2.123       .  S
Co81         O83   1.986       .  S
Co82         O83   1.896       .  S
C84        C2016   1.420       .  S
C85        C1989   1.507       .  S
C86        C2006   1.433       .  S
C87        C1976   1.495       .  S
O88          C96   1.298       .  A
O88        Co108   2.054       .  S
O89          C97   1.268       .  A
O89        Co109   1.902       .  S
O90          C98   1.238       .  A
O90        Co110   1.997       .  S
O91          C99   1.327       .  A
O91        Co111   2.189       .  S
O92          C98   1.241       .  A
O92        Co109   1.986       .  S
O93          C99   1.265       .  A
O93        Co108   1.823       .  S
O94          C97   1.313       .  A
O94        Co111   2.165       .  S
O95          C96   1.283       .  A
O95        Co110   1.879       .  S
C96        C2099   1.449       .  S
C97        C1916   1.523       .  S
C98        C2029   1.450       .  S
C99        C1946   1.485       .  S
O100        C113   1.238       .  A
O100       Co108   1.930       .  S
O101        C114   1.286       .  A
O101       Co109   2.019       .  S
O102        C115   1.251       .  A
O102       Co110   1.965       .  S
O103        C116   1.299       .  A
O103       Co111   2.147       .  S
O104        C116   1.253       .  A
O104       Co109   1.886       .  S
O105        C115   1.249       .  A
O105       Co108   1.951       .  S
O106        C113   1.271       .  A
O106       Co111   2.059       .  S
O107        C114   1.276       .  A
O107       Co110   1.998       .  S
Co108       O112   1.971       .  S
Co109       O112   1.902       .  S
Co110       O112   1.898       .  S
Co111       O112   2.132       .  S
C113       C1939   1.492       .  S
C114       C1956   1.447       .  S
C115       C2176   1.450       .  S
C116       C1926   1.483       .  S
O117        C125   1.258       .  A
O117       Co137   1.939       .  S
O118        C126   1.266       .  A
O118       Co138   1.994       .  S
O119        C127   1.246       .  A
O119       Co139   1.928       .  S
O120        C128   1.272       .  A
O120       Co140   2.043       .  S
O121        C127   1.293       .  A
O121       Co138   2.086       .  S
O122        C128   1.260       .  A
O122       Co137   1.981       .  S
O123        C126   1.272       .  A
O123       Co140   2.081       .  S
O124        C125   1.270       .  A
O124       Co139   1.981       .  S
C125       C2169   1.426       .  S
C126       C1876   1.515       .  S
C127       C1959   1.461       .  S
C128       C1896   1.517       .  S
O129        C142   1.227       .  A
O129       Co137   1.934       .  S
O130        C143   1.278       .  A
O130       Co138   2.026       .  S
O131        C144   1.246       .  A
O131       Co139   2.014       .  S
O132        C145   1.323       .  A
O132       Co140   2.202       .  S
O133        C145   1.251       .  A
O133       Co138   1.829       .  S
O134        C144   1.245       .  A
O134       Co137   1.974       .  S
O135        C142   1.280       .  A
O135       Co140   2.114       .  S
O136        C143   1.264       .  A
O136       Co139   1.908       .  S
Co137       O141   2.058       .  S
Co138       O141   1.965       .  S
Co139       O141   1.909       .  S
Co140       O141   2.163       .  S
C142       C1886   1.497       .  S
C143       C2019   1.423       .  S
C144       C1906   1.455       .  S
C145       C1866   1.510       .  S
O146        C154   1.254       .  A
O146       Co166   1.898       .  S
O147        C155   1.277       .  A
O147       Co167   2.071       .  S
O148        C156   1.243       .  A
O148       Co168   1.917       .  S
O149        C157   1.292       .  A
O149       Co169   2.092       .  S
O150        C156   1.278       .  A
O150       Co167   2.059       .  S
O151        C157   1.238       .  A
O151       Co166   1.907       .  S
O152        C155   1.268       .  A
O152       Co169   1.987       .  S
O153        C154   1.276       .  A
O153       Co168   2.013       .  S
C154       C2159   1.467       .  S
C155       C1836   1.508       .  S
C156       C1856   1.480       .  S
C157       C2079   1.456       .  S
O158        C171   1.274       .  A
O158       Co166   1.889       .  S
O159        C172   1.328       .  A
O159       Co167   2.196       .  S
O160        C173   1.251       .  A
O160       Co168   1.984       .  S
O161        C174   1.258       .  A
O161       Co169   1.822       .  S
O162        C174   1.323       .  A
O162       Co167   2.189       .  S
O163        C173   1.255       .  A
O163       Co166   1.996       .  S
O164        C171   1.291       .  A
O164       Co169   2.049       .  S
O165        C172   1.266       .  A
O165       Co168   1.830       .  S
Co166       O170   1.908       .  S
Co167       O170   2.102       .  S
Co168       O170   1.886       .  S
Co169       O170   1.938       .  S
C171       C2009   1.434       .  S
C172       C1826   1.495       .  S
C173       C1909   1.476       .  S
C174       C1846   1.487       .  S
O175        C183   1.259       .  A
O175       Co195   1.990   1_554  S
O176        C184   1.305       .  A
O176       Co196   2.146       .  S
O177        C185   1.233   1_556  A
O177       Co197   1.923       .  S
O178        C186   1.283       .  A
O178       Co198   2.005       .  S
O179        C185   1.267       .  A
O179       Co196   2.058       .  S
O180        C186   1.276       .  A
O180       Co195   1.993   1_554  S
O181        C184   1.259       .  A
O181       Co198   1.872       .  S
O182        C183   1.259   1_556  A
O182       Co197   1.971       .  S
C183       C1816   1.471       .  S
C184       C1766   1.483       .  S
C185       C1756   1.481       .  S
C186       C1796   1.438       .  S
O187        C200   1.240       .  A
O187       Co195   2.015       .  S
O188        C201   1.322       .  A
O188       Co196   2.154   1_556  S
O189        C202   1.303       .  A
O189       Co197   2.083       .  S
O190        C203   1.261       .  A
O190       Co198   1.905       .  S
O191        C203   1.315   1_556  A
O191       Co196   2.190   1_556  S
O192        C202   1.273       .  A
O192       Co195   1.861       .  S
O193        C200   1.245   1_554  A
O193       Co198   1.989       .  S
O194        C201   1.274       .  A
O194       Co197   1.863       .  S
Co195       O199   1.854   1_556  S
Co196       O199   2.130       .  S
Co197       O199   1.949   1_556  S
Co198       O199   1.903       .  S
C200       C1806   1.452       .  S
C201       C1779   1.493       .  S
C202       C1789   1.452       .  S
C203       C1746   1.528       .  S
O204        C212   1.236       .  A
O204       Co224   1.979   1_655  S
O205        C213   1.269       .  A
O205       Co225   1.800       .  S
O206        C214   1.279       .  A
O206       Co226   1.979   1_655  S
O207        C215   1.270       .  A
O207       Co227   2.022   1_655  S
O208        C214   1.273       .  A
O208       Co225   1.971   1_655  S
O209        C215   1.259       .  A
O209       Co224   2.002   1_655  S
O210        C213   1.334       .  A
O210       Co227   2.202       .  S
O211        C212   1.238       .  A
O211       Co226   1.968   1_655  S
C212       C1786   1.438       .  S
C213       C1699   1.473       .  S
C214       C1736   1.458       .  S
C215       C1706   1.505       .  S
O216        C229   1.250       .  A
O216       Co224   1.767       .  S
O217        C230   1.257       .  A
O217       Co225   2.007       .  S
O218        C231   1.286       .  A
O218       Co226   1.853       .  S
O219        C232   1.262       .  A
O219       Co227   2.028       .  S
O220        C232   1.244       .  A
O220       Co225   1.963       .  S
O221        C231   1.301       .  A
O221       Co224   2.045       .  S
O222        C229   1.333       .  A
O222       Co227   2.221       .  S
O223        C230   1.251       .  A
O223       Co226   1.982       .  S
Co224       O228   1.972       .  S
Co225       O228   1.915       .  S
Co226       O228   1.803       .  S
Co227       O228   2.060       .  S
C229       C1686   1.478       .  S
C230       C1716   1.448       .  S
C231       C1726   1.436       .  S
C232       C1676   1.490       .  S
O233        C241   1.280       .  A
O233       Co253   1.989       .  S
O234        C242   1.261       .  A
O234       Co254   1.886       .  S
O235        C243   1.269       .  A
O235       Co255   1.963       .  S
O236        C244   1.293       .  A
O236       Co256   2.087   1_556  S
O237        C243   1.291       .  A
O237       Co254   2.041       .  S
O238        C244   1.266       .  A
O238       Co253   1.916       .  S
O239        C242   1.302   1_556  A
O239       Co256   2.135   1_556  S
O240        C241   1.283       .  A
O240       Co255   2.033   1_556  S
C241       C1719   1.465       .  S
C242       C1626   1.484   1_554  S
C243       C1666   1.463   1_554  S
C244       C1606   1.478       .  S
O245        C258   1.258       .  A
O245       Co253   1.828       .  S
O246        C259   1.274       .  A
O246       Co254   2.035       .  S
O247        C260   1.267       .  A
O247       Co255   1.881       .  S
O248        C261   1.321       .  A
O248       Co256   2.183       .  S
O249        C261   1.269       .  A
O249       Co254   1.873       .  S
O250        C260   1.291   1_556  A
O250       Co253   2.089       .  S
O251        C258   1.327   1_554  A
O251       Co256   2.203       .  S
O252        C259   1.274       .  A
O252       Co255   1.920       .  S
Co253       O257   1.851       .  S
Co254       O257   1.856   1_554  S
Co255       O257   1.749   1_554  S
Co256       O257   2.031   1_554  S
C258       C1639   1.499       .  S
C259       C1646   1.438       .  S
C260       C1656   1.434       .  S
C261       C1616   1.515       .  S
O262        C270   1.278       .  A
O262       Co282   2.029       .  S
O263        C271   1.234       .  A
O263       Co283   1.880       .  S
O264        C272   1.279       .  A
O264       Co284   1.957       .  S
O265        C273   1.268       .  A
O265       Co285   2.060   1_655  S
O266        C272   1.270       .  A
O266       Co283   2.003       .  S
O267        C273   1.231       .  A
O267       Co282   1.912       .  S
O268        C271   1.293       .  A
O268       Co285   2.125       .  S
O269        C270   1.262       .  A
O269       Co284   1.903   1_655  S
C270       C1799   1.453       .  S
C271       C1579   1.506       .  S
C272       C1589   1.433       .  S
C273       C1549   1.481       .  S
O274        C287   1.279       .  A
O274       Co282   1.846       .  S
O275        C288   1.235       .  A
O275       Co283   2.010       .  S
O276        C289   1.264       .  A
O276       Co284   1.871       .  S
O277        C290   1.327       .  A
O277       Co285   2.189       .  S
O278        C290   1.262       .  A
O278       Co283   1.853       .  S
O279        C289   1.296       .  A
O279       Co282   2.105   1_455  S
O280        C287   1.335   1_455  A
O280       Co285   2.194       .  S
O281        C288   1.245       .  A
O281       Co284   1.985       .  S
Co282       O286   1.939   1_655  S
Co283       O286   1.841       .  S
Co284       O286   1.879       .  S
Co285       O286   2.121       .  S
C287       C1566   1.503   1_655  S
C288       C1649   1.432       .  S
C289       C1596   1.445       .  S
C290       C1559   1.494       .  S
O291        C299   1.284       .  A
O291       Co311   1.999   1_455  S
O292        C300   1.240       .  A
O292       Co312   1.972   1_556  S
O293        C301   1.291       .  A
O293       Co313   2.101   1_455  S
O294        C302   1.345   1_455  A
O294       Co314   2.260   1_456  S
O295        C301   1.257       .  A
O295       Co312   1.867       .  S
O296        C302   1.254       .  A
O296       Co311   1.781       .  S
O297        C300   1.273   1_554  A
O297       Co314   2.071   1_455  S
O298        C299   1.287   1_655  A
O298       Co313   1.919   1_556  S
C299       C1729   1.441       .  S
C300       C1526   1.492       .  S
C301       C1659   1.441       .  S
C302       C1516   1.508   1_655  S
O303        C316   1.244       .  A
O303       Co311   1.976       .  S
O304        C317   1.263       .  A
O304       Co312   1.972   1_655  S
O305        C318   1.232   1_554  A
O305       Co313   1.929       .  S
O306        C319   1.283   1_655  A
O306       Co314   2.084       .  S
O307        C319   1.253       .  A
O307       Co312   1.966       .  S
O308        C318   1.244       .  A
O308       Co311   2.004       .  S
O309        C316   1.260   1_554  A
O309       Co314   2.030       .  S
O310        C317   1.257       .  A
O310       Co313   1.925       .  S
Co311       O315   2.023   1_556  S
Co312       O315   1.894   1_455  S
Co313       O315   1.938       .  S
Co314       O315   2.072       .  S
C316       C1506   1.507       .  S
C317       C1586   1.452       .  S
C318       C1809   1.449       .  S
C319       C1536   1.524       .  S
O320        C328   1.266       .  A
O320       Co340   1.944       .  S
O321        C329   1.266       .  A
O321       Co341   2.019       .  S
O322        C330   1.234       .  A
O322       Co342   1.943       .  S
O323        C331   1.337       .  A
O323       Co343   2.216   1_554  S
O324        C330   1.241       .  A
O324       Co341   1.999       .  S
O325        C331   1.265   1_655  A
O325       Co340   1.781   1_655  S
O326        C329   1.273   1_554  A
O326       Co343   2.015   1_554  S
O327        C328   1.287       .  A
O327       Co342   2.006   1_554  S
C328       C1599   1.448       .  S
C329       C1479   1.504       .  S
C330       C1669   1.438       .  S
C331       C1499   1.481       .  S
O332        C345   1.238       .  A
O332       Co340   1.940   1_655  S
O333        C346   1.302       .  A
O333       Co341   2.045   1_655  S
O334        C347   1.250       .  A
O334       Co342   1.993   1_654  S
O335        C348   1.330       .  A
O335       Co343   2.211       .  S
O336        C348   1.254       .  A
O336       Co341   1.788       .  S
O337        C347   1.256       .  A
O337       Co340   2.026   1_655  S
O338        C345   1.262   1_556  A
O338       Co343   2.030   1_655  S
O339        C346   1.291   1_455  A
O339       Co342   1.881       .  S
Co340       O344   1.910       .  S
Co341       O344   1.958   1_556  S
Co342       O344   1.815   1_556  S
Co343       O344   2.072   1_556  S
C345       C1466   1.481   1_554  S
C346       C1739   1.455       .  S
C347       C1819   1.462       .  S
C348       C1486   1.479       .  S
O349        C357   1.285       .  A
O349       Co369   2.034       .  S
O350        C358   1.259       .  A
O350       Co370   1.901       .  S
O351        C359   1.266       .  A
O351       Co371   2.003   1_554  S
O352        C360   1.300   1_554  A
O352       Co372   2.118   1_554  S
O353        C359   1.268       .  A
O353       Co370   1.972       .  S
O354        C360   1.262       .  A
O354       Co369   1.899       .  S
O355        C358   1.301       .  A
O355       Co372   2.138   1_554  S
O356        C357   1.264       .  A
O356       Co371   1.984       .  S
C357       C1459   1.469       .  S
C358       C1406   1.496       .  S
C359       C1436   1.416       .  S
C360       C1399   1.481       .  S
O361        C374   1.261       .  A
O361       Co369   1.877       .  S
O362        C375   1.287       .  A
O362       Co370   2.093       .  S
O363        C376   1.277       .  A
O363       Co371   1.903       .  S
O364        C377   1.318   1_556  A
O364       Co372   2.205       .  S
O365        C377   1.248       .  A
O365       Co370   1.855       .  S
O366        C376   1.278       .  A
O366       Co369   2.046       .  S
O367        C374   1.314       .  A
O367       Co372   2.170       .  S
O368        C375   1.273   1_556  A
O368       Co371   1.886       .  S
Co369       O373   1.892   1_556  S
Co370       O373   1.917       .  S
Co371       O373   1.750   1_556  S
Co372       O373   2.058   1_556  S
C374       C1416   1.502       .  S
C375       C1449   1.432       .  S
C376       C1426   1.432       .  S
C377       C1386   1.510       .  S
O378        C386   1.269       .  A
O378       Co398   1.982       .  S
O379        C387   1.303       .  A
O379       Co399   2.127       .  S
O380        C388   1.259       .  A
O380       Co400   1.893   1_545  S
O381        C389   1.288       .  A
O381       Co401   2.030       .  S
O382        C388   1.299       .  A
O382       Co399   2.122       .  S
O383        C389   1.273       .  A
O383       Co398   2.013       .  S
O384        C387   1.261       .  A
O384       Co401   1.888       .  S
O385        C386   1.281   1_565  A
O385       Co400   1.994       .  S
C386       C1376   1.450       .  S
C387       C1339   1.480       .  S
C388       C1319   1.477       .  S
C389       C1359   1.487       .  S
O390        C403   1.276       .  A
O390       Co398   1.901       .  S
O391        C404   1.320       .  A
O391       Co399   2.210   1_565  S
O392        C405   1.282       .  A
O392       Co400   2.054       .  S
O393        C406   1.266       .  A
O393       Co401   1.878       .  S
O394        C406   1.315       .  A
O394       Co399   2.172       .  S
O395        C405   1.277       .  A
O395       Co398   1.906   1_565  S
O396        C403   1.280       .  A
O396       Co401   2.056       .  S
O397        C404   1.255       .  A
O397       Co400   1.870       .  S
Co398       O402   1.758       .  S
Co399       O402   2.064       .  S
Co400       O402   1.860   1_565  S
Co401       O402   1.860       .  S
C403       C1369   1.434       .  S
C404       C1346   1.528       .  S
C405       C1429   1.438       .  S
C406       C1326   1.513       .  S
O407        C415   1.281       .  A
O407       Co427   2.084       .  S
O408        C416   1.275       .  A
O408       Co428   2.018       .  S
O409        C417   1.295   1_556  A
O409       Co429   2.045       .  S
O410        C418   1.248   1_554  A
O410       Co430   1.926       .  S
O411        C417   1.258       .  A
O411       Co428   1.921       .  S
O412        C418   1.293       .  A
O412       Co427   2.076       .  S
O413        C416   1.265       .  A
O413       Co430   1.949       .  S
O414        C415   1.262       .  A
O414       Co429   2.003       .  S
C415       C1356   1.478       .  S
C416       C1286   1.470       .  S
C417       C1306   1.449       .  S
C418       C1296   1.467       .  S
O419        C432   1.267   1_556  A
O419       Co427   2.009       .  S
O420        C433   1.268   1_554  A
O420       Co428   1.991       .  S
O421        C434   1.273       .  A
O421       Co429   1.958       .  S
O422        C435   1.255       .  A
O422       Co430   1.966       .  S
O423        C435   1.255       .  A
O423       Co428   1.960       .  S
O424        C434   1.280       .  A
O424       Co427   1.982       .  S
O425        C432   1.260       .  A
O425       Co430   1.971       .  S
O426        C433   1.250       .  A
O426       Co429   1.966       .  S
Co427       O431   2.093   1_556  S
Co428       O431   2.071       .  S
Co429       O431   2.014   1_556  S
Co430       O431   2.055       .  S
C432       C1256   1.493       .  S
C433       C1246   1.498   1_556  S
C434       C1266   1.461       .  S
C435       C1279   1.460       .  S
O436        C444   1.284       .  A
O436       Co456   1.840       .  S
O437        C445   1.261       .  A
O437       Co457   2.016       .  S
O438        C446   1.241       .  A
O438       Co458   1.955       .  S
O439        C447   1.276       .  A
O439       Co459   2.017       .  S
O440        C446   1.273       .  A
O440       Co457   2.083   1_565  S
O441        C447   1.266   1_565  A
O441       Co456   1.955       .  S
O442        C445   1.250       .  A
O442       Co459   1.993       .  S
O443        C444   1.295       .  A
O443       Co458   2.050       .  S
C444       C1439   1.422       .  S
C445       C1206   1.494       .  S
C446       C1196   1.516       .  S
C447       C1229   1.463       .  S
O448        C461   1.277       .  A
O448       Co456   2.014   1_545  S
O449        C462   1.292       .  A
O449       Co457   2.097       .  S
O450        C463   1.252       .  A
O450       Co458   1.890       .  S
O451        C464   1.277       .  A
O451       Co459   1.778       .  S
O452        C464   1.340       .  A
O452       Co457   2.219       .  S
O453        C463   1.282       .  A
O453       Co456   2.079       .  S
O454        C461   1.265       .  A
O454       Co459   1.961       .  S
O455        C462   1.252       .  A
O455       Co458   1.957   1_545  S
Co456       O460   1.937   1_565  S
Co457       O460   2.004       .  S
Co458       O460   1.918   1_565  S
Co459       O460   1.856       .  S
C461       C1289   1.473       .  S
C462       C1216   1.498       .  S
C463       C1236   1.439       .  S
C464       C1189   1.473       .  S
O465        C473   1.251   1_565  A
O465       Co485   1.958       .  S
O466        C474   1.257       .  A
O466       Co486   1.877       .  S
O467        C475   1.275       .  A
O467       Co487   1.995       .  S
O468        C476   1.272       .  A
O468       Co488   2.067   1_554  S
O469        C475   1.296       .  A
O469       Co486   2.044       .  S
O470        C476   1.235   1_565  A
O470       Co485   1.929       .  S
O471        C474   1.301       .  A
O471       Co488   2.135       .  S
O472        C473   1.255       .  A
O472       Co487   1.986   1_554  S
C473       C1226   1.469       .  S
C474       C1156   1.478   1_556  S
C475       C1299   1.454       .  S
C476       C1176   1.494       .  S
O477        C490   1.265       .  A
O477       Co485   1.843       .  S
O478        C491   1.236       .  A
O478       Co486   1.965       .  S
O479        C492   1.285       .  A
O479       Co487   1.879   1_565  S
O480        C493   1.312       .  A
O480       Co488   2.165       .  S
O481        C493   1.271       .  A
O481       Co486   1.910       .  S
O482        C492   1.293       .  A
O482       Co485   2.038   1_556  S
O483        C490   1.327   1_556  A
O483       Co488   2.193   1_565  S
O484        C491   1.243   1_565  A
O484       Co487   2.012   1_565  S
Co485       O489   1.976   1_564  S
Co486       O489   1.902       .  S
Co487       O489   1.884       .  S
Co488       O489   2.122       .  S
C490       C1146   1.503       .  S
C491       C1366   1.440       .  S
C492       C1446   1.435       .  S
C493       C1169   1.524       .  S
O494        C502   1.266       .  A
O494       Co514   1.980   1_556  S
O495        C503   1.248       .  A
O495       Co515   1.958       .  S
O496        C504   1.283       .  A
O496       Co516   2.079   1_556  S
O497        C505   1.348   1_556  A
O497       Co517   2.244   1_566  S
O498        C504   1.258       .  A
O498       Co515   1.883       .  S
O499        C505   1.277       .  A
O499       Co514   1.781       .  S
O500        C503   1.285       .  A
O500       Co517   2.090   1_556  S
O501        C502   1.272   1_554  A
O501       Co516   2.010   1_565  S
C502       C1456   1.473       .  S
C503       C1129   1.499       .  S
C504       C1379   1.429       .  S
C505       C1116   1.491   1_554  S
O506        C519   1.240       .  A
O506       Co514   1.981       .  S
O507        C520   1.295   1_556  A
O507       Co515   2.067       .  S
O508        C521   1.266       .  A
O508       Co516   1.952       .  S
O509        C522   1.275   1_554  A
O509       Co517   2.057       .  S
O510        C522   1.255       .  A
O510       Co515   1.971       .  S
O511        C521   1.273   1_565  A
O511       Co514   1.974       .  S
O512        C519   1.256   1_545  A
O512       Co517   2.052       .  S
O513        C520   1.279       .  A
O513       Co516   1.841       .  S
Co514       O518   1.881   1_565  S
Co515       O518   1.930   1_556  S
Co516       O518   1.940       .  S
Co517       O518   2.000       .  S
C519       C1139   1.524   1_565  S
C520       C1309   1.418       .  S
C521       C1239   1.444   1_545  S
C522       C1109   1.516       .  S
O523        C531   1.283       .  A
O523       Co543   2.010       .  S
O524        C532   1.262       .  A
O524       Co544   1.892       .  S
O525        C533   1.279       .  A
O525       Co545   2.011       .  S
O526        C534   1.308       .  A
O526       Co546   2.140   1_655  S
O527        C533   1.287       .  A
O527       Co544   2.009       .  S
O528        C534   1.260       .  A
O528       Co543   1.880       .  S
O529        C532   1.299       .  A
O529       Co546   2.114       .  S
O530        C531   1.274       .  A
O530       Co545   1.992   1_655  S
C531       C1066   1.452       .  S
C532       C1039   1.473       .  S
C533       C1089   1.462       .  S
C534       C1059   1.482       .  S
O535        C548   1.261       .  A
O535       Co543   1.861       .  S
O536        C549   1.282       .  A
O536       Co544   2.077       .  S
O537        C550   1.268       .  A
O537       Co545   1.887       .  S
O538        C551   1.326       .  A
O538       Co546   2.207       .  S
O539        C551   1.265       .  A
O539       Co544   1.856       .  S
O540        C550   1.283   1_655  A
O540       Co543   2.071       .  S
O541        C548   1.320   1_455  A
O541       Co546   2.189       .  S
O542        C549   1.266       .  A
O542       Co545   1.875       .  S
Co543       O547   1.863   1_655  S
Co544       O547   1.867       .  S
Co545       O547   1.702       .  S
Co546       O547   2.009       .  S
C548       C1046   1.500   1_655  S
C549       C1076   1.438       .  S
C550       C1099   1.437       .  S
C551       C1026   1.523       .  S
O552        C560   1.281       .  A
O552       Co572   2.014       .  S
O553        C561   1.260       .  A
O553       Co573   1.911       .  S
O554        C562   1.271       .  A
O554       Co574   2.013       .  S
O555        C563   1.303       .  A
O555       Co575   2.136   1_565  S
O556        C562   1.277       .  A
O556       Co573   1.981       .  S
O557        C563   1.258       .  A
O557       Co572   1.894       .  S
O558        C561   1.304       .  A
O558       Co575   2.144       .  S
O559        C560   1.264       .  A
O559       Co574   1.975   1_565  S
C560       C1069   1.462       .  S
C561        C976   1.499       .  S
C562       C1019   1.457       .  S
C563        C989   1.486       .  S
O564        C577   1.257       .  A
O564       Co572   1.869       .  S
O565        C578   1.286       .  A
O565       Co573   2.070       .  S
O566        C579   1.280       .  A
O566       Co574   1.930       .  S
O567        C580   1.321       .  A
O567       Co575   2.207       .  S
O568        C580   1.252       .  A
O568       Co573   1.854       .  S
O569        C579   1.280   1_565  A
O569       Co572   2.044       .  S
O570        C577   1.322   1_545  A
O570       Co575   2.210       .  S
O571        C578   1.277       .  A
O571       Co574   1.887       .  S
Co572       O576   1.867   1_565  S
Co573       O576   1.880       .  S
Co574       O576   1.782       .  S
Co575       O576   2.073       .  S
C577        C966   1.528       .  S
C578        C999   1.456       .  S
C579       C1009   1.454       .  S
C580        C959   1.514       .  S
O581        C589   1.289   1_565  A
O581       Co601   2.021       .  S
O582        C590   1.259       .  A
O582       Co602   1.884       .  S
O583        C591   1.277       .  A
O583       Co603   1.998       .  S
O584        C592   1.309       .  A
O584       Co604   2.143       .  S
O585        C591   1.287       .  A
O585       Co602   2.016       .  S
O586        C592   1.263   1_565  A
O586       Co601   1.903       .  S
O587        C590   1.303       .  A
O587       Co604   2.132       .  S
O588        C589   1.278       .  A
O588       Co603   2.007       .  S
C589        C939   1.457       .  S
C590        C896   1.477       .  S
C591        C926   1.458       .  S
C592        C916   1.496       .  S
O593        C606   1.264       .  A
O593       Co601   1.871       .  S
O594        C607   1.278       .  A
O594       Co602   2.057       .  S
O595        C608   1.272       .  A
O595       Co603   1.889   1_565  S
O596        C609   1.325       .  A
O596       Co604   2.203       .  S
O597        C609   1.264       .  A
O597       Co602   1.867       .  S
O598        C608   1.280       .  A
O598       Co601   2.042       .  S
O599        C606   1.322       .  A
O599       Co604   2.193   1_565  S
O600        C607   1.271   1_565  A
O600       Co603   1.909   1_565  S
Co601       O605   1.860   1_565  S
Co602       O605   1.866       .  S
Co603       O605   1.735       .  S
Co604       O605   2.010       .  S
C606        C909   1.508       .  S
C607        C949   1.434       .  S
C608       C1079   1.435       .  S
C609        C889   1.516       .  S
O610        C618   1.289       .  A
O610       Co630   2.011       .  S
O611        C619   1.254       .  A
O611       Co631   1.907       .  S
O612        C620   1.248       .  A
O612       Co632   1.921       .  S
O613        C621   1.305       .  A
O613       Co633   2.146       .  S
O614        C620   1.284       .  A
O614       Co631   2.053       .  S
O615        C621   1.261   1_655  A
O615       Co630   1.881       .  S
O616        C619   1.292       .  A
O616       Co633   2.113       .  S
O617        C618   1.282       .  A
O617       Co632   2.009   1_655  S
C618        C879   1.444       .  S
C619        C846   1.484       .  S
C620        C929   1.454       .  S
C621        C826   1.490       .  S
O622        C635   1.263       .  A
O622       Co630   1.898       .  S
O623        C636   1.282       .  A
O623       Co631   2.049       .  S
O624        C637   1.257       .  A
O624       Co632   1.989   1_655  S
O625        C638   1.317       .  A
O625       Co633   2.186       .  S
O626        C638   1.260       .  A
O626       Co631   1.875       .  S
O627        C637   1.245       .  A
O627       Co630   1.970       .  S
O628        C635   1.312       .  A
O628       Co633   2.175   1_655  S
O629        C636   1.274       .  A
O629       Co632   1.852       .  S
Co630       O634   1.864   1_655  S
Co631       O634   1.907       .  S
Co632       O634   1.881       .  S
Co633       O634   2.085       .  S
C635        C836   1.512       .  S
C636        C869   1.430       .  S
C637        C996   1.463       .  S
C638        C859   1.511       .  S
O639        C647   1.282       .  A
O639       Co659   2.002   1_565  S
O640        C648   1.273       .  A
O640       Co660   2.078       .  S
O641        C649   1.258   1_655  A
O641       Co661   1.875       .  S
O642        C650   1.248       .  A
O642       Co662   1.963       .  S
O643        C649   1.303       .  A
O643       Co660   2.141   1_565  S
O644        C650   1.251       .  A
O644       Co659   1.973   1_455  S
O645        C648   1.232       .  A
O645       Co662   1.917       .  S
O646        C647   1.294       .  A
O646       Co661   2.024       .  S
C647       C1086   1.457       .  S
C648        C786   1.487   1_545  S
C649        C796   1.480       .  S
C650        C936   1.460       .  S
O651        C664   1.287       .  A
O651       Co659   1.872       .  S
O652        C665   1.311   1_545  A
O652       Co660   2.161   1_655  S
O653        C666   1.240   1_565  A
O653       Co661   1.974       .  S
O654        C667   1.265       .  A
O654       Co662   1.863       .  S
O655        C667   1.322       .  A
O655       Co660   2.175       .  S
O656        C666   1.248       .  A
O656       Co659   2.001       .  S
O657        C664   1.290       .  A
O657       Co662   2.059   1_655  S
O658        C665   1.268       .  A
O658       Co661   1.906       .  S
Co659       O663   1.882   1_645  S
Co660       O663   2.141   1_545  S
Co661       O663   1.881   1_655  S
Co662       O663   1.927   1_545  S
C664        C866   1.430       .  S
C665        C806   1.515       .  S
C666       C1006   1.454       .  S
C667        C819   1.507       .  S
O668        C676   1.283   1_565  A
O668       Co688   2.025       .  S
O669        C677   1.263   1_655  A
O669       Co689   1.881       .  S
O670        C678   1.272       .  A
O670       Co690   1.976   1_655  S
O671        C679   1.285       .  A
O671       Co691   2.103       .  S
O672        C678   1.291       .  A
O672       Co689   2.028       .  S
O673        C679   1.256   1_565  A
O673       Co688   1.918       .  S
O674        C677   1.299       .  A
O674       Co691   2.118       .  S
O675        C676   1.254       .  A
O675       Co690   1.963       .  S
C676        C946   1.449       .  S
C677        C756   1.474       .  S
C678        C876   1.445       .  S
C679        C769   1.480       .  S
O680        C693   1.249       .  A
O680       Co688   1.842       .  S
O681        C694   1.250       .  A
O681       Co689   1.972       .  S
O682        C695   1.269   1_655  A
O682       Co690   1.860   1_665  S
O683        C696   1.311       .  A
O683       Co691   2.163   1_655  S
O684        C696   1.265       .  A
O684       Co689   1.886       .  S
O685        C695   1.285       .  A
O685       Co688   2.041       .  S
O686        C693   1.314       .  A
O686       Co691   2.176   1_565  S
O687        C694   1.254   1_565  A
O687       Co690   1.984   1_665  S
Co688       O692   1.880   1_565  S
Co689       O692   1.863   1_655  S
Co690       O692   1.895       .  S
Co691       O692   2.099       .  S
C693        C776   1.485       .  S
C694       C1016   1.464       .  S
C695       C1096   1.420       .  S
C696        C749   1.506       .  S
C697        C698   1.381   1_455  D
C697        C816   1.516       .  S
C697        C856   1.529       .  S
C698       C1539   1.535   1_655  S
C698       C1576   1.524       .  S
C699        C700   1.384       .  D
C699       C1136   1.527       .  S
C699       C1219   1.522       .  S
C700        C809   1.522       .  S
C700        C969   1.532       .  S
C701        C702   1.369       .  D
C701       C1496   1.509       .  S
C701       C1569   1.515       .  S
C702        C799   1.505       .  S
C702       C1036   1.503       .  S
C703        C704   1.378       .  D
C703       C1179   1.522       .  S
C703       C1209   1.508       .  S
C704        C789   1.512       .  S
C704        C919   1.520       .  S
C705        C706   1.371       .  D
C705        C849   1.508       .  S
C705        C899   1.508       .  S
C706       C1859   1.503       .  S
C706       C2129   1.508       .  S
C707        C708   1.379       .  D
C707       C1936   1.524       .  S
C707       C2139   1.511       .  S
C708        C839   1.517       .  S
C708        C956   1.522       .  S
C709        C710   1.381       .  D
C709       C1849   1.519       .  S
C709       C1986   1.519       .  S
C710        C906   1.527       .  S
C710       C1029   1.523       .  S
C711        C712   1.381       .  D
C711        C766   1.510       .  S
C711        C886   1.529       .  S
C712       C1166   1.532       .  S
C712       C1329   1.513       .  S
C713        C714   1.372       .  D
C713       C1529   1.513       .  S
C713       C1636   1.516       .  S
C714       C1159   1.507       .  S
C714       C1259   1.493       .  S
C715        C716   1.377       .  D
C715       C1476   1.513       .  S
C715       C1629   1.508       .  S
C716       C1149   1.512       .  S
C716       C1389   1.522       .  S
C717        C718   1.375       .  D
C717       C1199   1.524       .  S
C717       C1409   1.522       .  S
C718       C1996   1.513       .  S
C718       C2069   1.514       .  S
C719        C720   1.364       .  D
C719       C1186   1.503       .  S
C719       C1276   1.472       .  S
C720       C2059   1.516       .  S
C720       C2116   1.489       .  S
C721        C722   1.364       .  D
C721       C1269   1.468       .  S
C721       C1336   1.512       .  S
C722       C1899   1.521       .  S
C722       C2109   1.481       .  S
C723        C724   1.375       .  D
C723       C1519   1.530       .  S
C723       C1689   1.517       .  S
C724        C759   1.502       .  S
C724        C829   1.513       .  S
C725        C726   1.374       .  D
C725       C1509   1.511       .  S
C725       C1749   1.529       .  S
C726       C1106   1.521       .  S
C726       C1249   1.506       .  S
C727        C728   1.375       .  D
C727       C1839   1.526       .  S
C727       C2049   1.513       .  S
C728       C1556   1.506       .  S
C728       C1619   1.524       .  S
C729        C730   1.371       .  D
C729       C1949   1.504       .  S
C729       C2039   1.503       .  S
C730       C1546   1.511       .  S
C730       C1769   1.510       .  S
C731        C732   1.368       .  D
C731       C1829   1.509       .  S
C731       C1889   1.519       .  S
C732       C1609   1.493       .  S
C732       C1679   1.506       .  S
C733        C734   1.371       .  D
C733        C779   1.503       .  S
C733       C1049   1.513       .  S
C734       C1489   1.510       .  S
C734       C1696   1.505       .  S
C735        C736   1.374       .  D
C735       C1126   1.520       .  S
C735       C1316   1.503       .  S
C736        C746   1.506       .  S
C736        C979   1.525       .  S
C737        C738   1.384       .  D
C737       C1119   1.559       .  S
C737       C1396   1.512       .  S
C738       C1469   1.486       .  S
C738       C1759   1.513       .  S
C739        C740   1.377       .  D
C739       C1879   1.531       .  S
C739       C1929   1.520       .  S
C740       C1709   1.518       .  S
C740       C1776   1.499       .  S
C741        C742   1.371       .  D
C741       C1919   1.522       .  S
C741       C1966   1.518       .  S
C742        C986   1.511       .  S
C742       C1056   1.509       .  S
C743        C744   1.384       .  D
C743       C1869   1.521       .  S
C743       C1979   1.520       .  S
C744       C1349   1.531       .  S
C744       C1419   1.524       .  S
C745        C746   1.410   1_565  A
C745        C750   1.418       .  A
C745        H752   1.083       .  S
C746        C747   1.404       .  A
C747        C748   1.399       .  A
C747        F754   1.356       .  S
C748        C749   1.411       .  A
C748        H753   1.083       .  S
C749        C750   1.415   1_545  A
C750        F751   1.357       .  S
C755        C756   1.409       .  A
C755        C760   1.413       .  A
C755        H762   1.083       .  S
C756        C757   1.405   1_455  A
C757        C758   1.392       .  A
C757        F764   1.359       .  S
C758        C759   1.402   1_655  A
C758        H763   1.079       .  S
C759        C760   1.408       .  A
C760        F761   1.357       .  S
C765        C766   1.409   1_565  A
C765        C770   1.406       .  A
C765        H772   1.083       .  S
C766        C767   1.408       .  A
C767        C768   1.409       .  A
C767        F774   1.356       .  S
C768        C769   1.409       .  A
C768        H773   1.084       .  S
C769        C770   1.408   1_545  A
C770        F771   1.357       .  S
C775        C776   1.410   1_655  A
C775        C780   1.415       .  A
C775        H782   1.083       .  S
C776        C777   1.412       .  A
C777        C778   1.396       .  A
C777        F784   1.359       .  S
C778        C779   1.401       .  A
C778        H783   1.083       .  S
C779        C780   1.410   1_455  A
C780        F781   1.356       .  S
C785        C786   1.408   1_545  A
C785        C790   1.409       .  A
C785        H792   1.083       .  S
C786        C787   1.412       .  A
C787        C788   1.409       .  A
C787        F794   1.357       .  S
C788        C789   1.406   1_565  A
C788        H793   1.083       .  S
C789        C790   1.412       .  A
C790        F791   1.357       .  S
C795        C796   1.408       .  A
C795        C800   1.413       .  A
C795        H802   1.083       .  S
C796        C797   1.410   1_455  A
C797        C798   1.397       .  A
C797        F804   1.358       .  S
C798        C799   1.401   1_655  A
C798        H803   1.083       .  S
C799        C800   1.410       .  A
C800        F801   1.357       .  S
C805        C806   1.411       .  A
C805        C810   1.404       .  A
C805        H812   1.083       .  S
C806        C807   1.416   1_565  A
C807        C808   1.419       .  A
C807        F814   1.357       .  S
C808        C809   1.411       .  A
C808        H813   1.083       .  S
C809        C810   1.410   1_545  A
C810        F811   1.355       .  S
C815        C816   1.413   1_655  A
C815        C820   1.420       .  A
C815        H822   1.083       .  S
C816        C817   1.405       .  A
C817        C818   1.399       .  A
C817        F824   1.353       .  S
C818        C819   1.411       .  A
C818        H823   1.084       .  S
C819        C820   1.413   1_455  A
C820        F821   1.356       .  S
C825        C826   1.408   1_655  A
C825        C830   1.396       .  A
C825        H832   1.084       .  S
C826        C827   1.410       .  A
C827        C828   1.419       .  A
C827        F834   1.356       .  S
C828        C829   1.413       .  A
C828        H833   1.083       .  S
C829        C830   1.405   1_455  A
C830        F831   1.356       .  S
C835        C836   1.413       .  A
C835        C840   1.419       .  A
C835        H842   1.083       .  S
C836        C837   1.415       .  A
C837        C838   1.405       .  A
C837        F844   1.357       .  S
C838        C839   1.405       .  A
C838        H843   1.083       .  S
C839        C840   1.412       .  A
C840        F841   1.356       .  S
C845        C846   1.409       .  A
C845        C850   1.411       .  A
C845        H852   1.083       .  S
C846        C847   1.410       .  A
C847        C848   1.406       .  A
C847        F854   1.358       .  S
C848        C849   1.406       .  A
C848        H853   1.083       .  S
C849        C850   1.408       .  A
C850        F851   1.357       .  S
C855        C856   1.414   1_655  A
C855        C860   1.424       .  A
C855        H862   1.083       .  S
C856        C857   1.410       .  A
C857        C858   1.402       .  A
C857        F864   1.354       .  S
C858        C859   1.409       .  A
C858        H863   1.084       .  S
C859        C860   1.415   1_455  A
C860        F861   1.357       .  S
C865        C866   1.401   1_455  A
C865        C870   1.382       .  A
C865        H872   1.081       .  S
C866        C867   1.394       .  A
C867        C868   1.382       .  A
C867        F874   1.355       .  S
C868        C869   1.397   1_655  A
C868        H873   1.081       .  S
C869        C870   1.392       .  A
C870        F871   1.358       .  S
C875        C876   1.402       .  A
C875        C880   1.385       .  A
C875        H882   1.084       .  S
C876        C877   1.401       .  A
C877        C878   1.389   1_655  A
C877        F884   1.357   1_655  S
C878        C879   1.402   1_455  A
C878        H883   1.084       .  S
C879        C880   1.398       .  A
C880        F881   1.358       .  S
C885        C886   1.414   1_565  A
C885        C890   1.425       .  A
C885        H892   1.083       .  S
C886        C887   1.408       .  A
C887        C888   1.405       .  A
C887        F894   1.356       .  S
C888        C889   1.414       .  A
C888        H893   1.083       .  S
C889        C890   1.415   1_545  A
C890        F891   1.356       .  S
C895        C896   1.408       .  A
C895        C900   1.403       .  A
C895        H902   1.084       .  S
C896        C897   1.412       .  A
C897        C898   1.411       .  A
C897        F904   1.357       .  S
C898        C899   1.407       .  A
C898        H903   1.083       .  S
C899        C900   1.407       .  A
C900        F901   1.357       .  S
C905        C906   1.411       .  A
C905        C910   1.420       .  A
C905        H912   1.083       .  S
C906        C907   1.412       .  A
C907        C908   1.407       .  A
C907        F914   1.357       .  S
C908        C909   1.410       .  A
C908        H913   1.083       .  S
C909        C910   1.414       .  A
C910        F911   1.357       .  S
C915        C916   1.410   1_565  A
C915        C920   1.411       .  A
C915        H922   1.083       .  S
C916        C917   1.412       .  A
C917        C918   1.414       .  A
C917        F924   1.357       .  S
C918        C919   1.408       .  A
C918        H923   1.083       .  S
C919        C920   1.410   1_545  A
C920        F921   1.357       .  S
C925        C926   1.407       .  A
C925        C930   1.394       .  A
C925        H932   1.081       .  S
C926        C927   1.402       .  A
C927        C928   1.378       .  A
C927        F934   1.357       .  S
C928        C929   1.402       .  A
C928        H933   1.084       .  S
C929        C930   1.398       .  A
C930        F931   1.352       .  S
C935        C936   1.400       .  A
C935        C940   1.390       .  A
C935        H942   1.084       .  S
C936        C937   1.408       .  A
C937        C938   1.392       .  A
C937        F944   1.358       .  S
C938        C939   1.399       .  A
C938        H943   1.083       .  S
C939        C940   1.405       .  A
C940        F941   1.358   1_545  S
C945        C946   1.400       .  A
C945        C950   1.389       .  A
C945        H952   1.084       .  S
C946        C947   1.408   1_545  A
C947        C948   1.381       .  A
C947        F954   1.358       .  S
C948        C949   1.392   1_565  A
C948        H953   1.084       .  S
C949        C950   1.401       .  A
C950        F951   1.357       .  S
C955        C956   1.399       .  A
C955        C960   1.401       .  A
C955        H962   1.082       .  S
C956        C957   1.417       .  A
C957        C958   1.426       .  A
C957        F964   1.356       .  S
C958        C959   1.413       .  A
C958        H963   1.083       .  S
C959        C960   1.419       .  A
C960        F961   1.359       .  S
C965        C966   1.417       .  A
C965        C970   1.402       .  A
C965        H972   1.083       .  S
C966        C967   1.415   1_565  A
C967        C968   1.431       .  A
C967        F974   1.356       .  S
C968        C969   1.419       .  A
C968        H973   1.082       .  S
C969        C970   1.405   1_545  A
C970        F971   1.354       .  S
C975        C976   1.411       .  A
C975        C980   1.410       .  A
C975        H982   1.084       .  S
C976        C977   1.414   1_545  A
C977        C978   1.418       .  A
C977        F984   1.357       .  S
C978        C979   1.410   1_565  A
C978        H983   1.083       .  S
C979        C980   1.410       .  A
C980        F981   1.356       .  S
C985        C986   1.408       .  A
C985        C990   1.412       .  A
C985        H992   1.083       .  S
C986        C987   1.407       .  A
C987        C988   1.407       .  A
C987        F994   1.357       .  S
C988        C989   1.410       .  A
C988        H993   1.084       .  S
C989        C990   1.411       .  A
C990        F991   1.357       .  S
C995        C996   1.407       .  A
C995       C1000   1.395       .  A
C995       H1002   1.083       .  S
C996        C997   1.396       .  A
C997        C998   1.373       .  A
C997       F1004   1.336       .  S
C998        C999   1.393       .  A
C998       H1003   1.079       .  S
C999       C1000   1.405       .  A
C1000      F1001   1.356       .  S
C1005      C1006   1.398       .  A
C1005      C1010   1.386       .  A
C1005      H1012   1.078       .  S
C1006      C1007   1.403   1_545  A
C1007      C1008   1.386       .  A
C1007      F1014   1.358       .  S
C1008      C1009   1.403   1_565  A
C1008      H1013   1.084       .  S
C1009      C1010   1.399       .  A
C1010      F1011   1.352       .  S
C1015      C1016   1.404   1_565  A
C1015      C1020   1.393       .  A
C1015      H1022   1.073       .  S
C1016      C1017   1.403       .  A
C1017      C1018   1.383       .  A
C1017      F1024   1.355       .  S
C1018      C1019   1.403       .  A
C1018      H1023   1.084       .  S
C1019      C1020   1.399   1_545  A
C1020      F1021   1.356       .  S
C1025      C1026   1.418       .  A
C1025      C1030   1.399       .  A
C1025      H1032   1.083       .  S
C1026      C1027   1.414       .  A
C1027      C1028   1.427       .  A
C1027      F1034   1.356       .  S
C1028      C1029   1.419       .  A
C1028      H1033   1.083       .  S
C1029      C1030   1.400       .  A
C1030      F1031   1.357       .  S
C1035      C1036   1.405   1_655  A
C1035      C1040   1.405       .  A
C1035      H1042   1.082       .  S
C1036      C1037   1.408       .  A
C1037      C1038   1.404       .  A
C1037      F1044   1.357       .  S
C1038      C1039   1.406       .  A
C1038      H1043   1.084       .  S
C1039      C1040   1.409   1_455  A
C1040      F1041   1.358       .  S
C1045      C1046   1.411   1_655  A
C1045      C1050   1.400       .  A
C1045      H1052   1.084       .  S
C1046      C1047   1.413       .  A
C1047      C1048   1.418       .  A
C1047      F1054   1.357       .  S
C1048      C1049   1.412       .  A
C1048      H1053   1.083       .  S
C1049      C1050   1.405   1_455  A
C1050      F1051   1.357       .  S
C1055      C1056   1.403       .  A
C1055      C1060   1.402       .  A
C1055      H1062   1.082       .  S
C1056      C1057   1.409       .  A
C1057      C1058   1.414       .  A
C1057      F1064   1.356       .  S
C1058      C1059   1.410       .  A
C1058      H1063   1.083       .  S
C1059      C1060   1.411       .  A
C1060      F1061   1.358       .  S
C1065      C1066   1.400       .  A
C1065      C1070   1.392       .  A
C1065      H1072   1.084       .  S
C1066      C1067   1.402       .  A
C1067      C1068   1.382       .  A
C1067      F1074   1.359       .  S
C1068      C1069   1.402       .  A
C1068      H1073   1.083       .  S
C1069      C1070   1.408       .  A
C1070      F1071   1.355       .  S
C1075      C1076   1.402       .  A
C1075      C1080   1.367       .  A
C1075      H1082   1.084       .  S
C1076      C1077   1.395       .  A
C1077      C1078   1.387       .  A
C1077      F1084   1.353       .  S
C1078      C1079   1.406       .  A
C1078      H1083   1.084       .  S
C1079      C1080   1.398       .  A
C1080      F1081   1.359       .  S
C1085      C1086   1.403   1_455  A
C1085      C1090   1.388       .  A
C1085      H1092   1.083       .  S
C1086      C1087   1.401       .  A
C1087      C1088   1.389       .  A
C1087      F1094   1.358       .  S
C1088      C1089   1.403   1_655  A
C1088      H1093   1.080       .  S
C1089      C1090   1.406       .  A
C1090      F1091   1.358       .  S
C1095      C1096   1.391       .  A
C1095      C1100   1.377       .  A
C1095      H1102   1.085       .  S
C1096      C1097   1.400   1_455  A
C1097      C1098   1.384       .  A
C1097      F1104   1.355       .  S
C1098      C1099   1.397   1_655  A
C1098      H1103   1.083       .  S
C1099      C1100   1.406       .  A
C1100      F1101   1.359       .  S
C1105      C1106   1.412   1_554  A
C1105      C1110   1.419       .  A
C1105      H1112   1.083       .  S
C1106      C1107   1.407       .  A
C1107      C1108   1.411       .  A
C1107      F1114   1.357       .  S
C1108      C1109   1.414       .  A
C1108      H1113   1.083       .  S
C1109      C1110   1.414   1_556  A
C1110      F1111   1.357       .  S
C1115      C1116   1.408       .  A
C1115      C1120   1.395       .  A
C1115      H1122   1.076       .  S
C1116      C1117   1.390       .  A
C1117      C1118   1.414       .  A
C1117      F1124   1.357       .  S
C1118      C1119   1.437       .  A
C1118      H1123   1.053       .  S
C1119      C1120   1.416       .  A
C1120      F1121   1.355       .  S
C1125      C1126   1.410   1_565  A
C1125      C1130   1.415       .  A
C1125      H1132   1.083       .  S
C1126      C1127   1.410       .  A
C1127      C1128   1.411       .  A
C1127      F1134   1.355       .  S
C1128      C1129   1.409       .  A
C1128      H1133   1.083       .  S
C1129      C1130   1.411   1_545  A
C1130      F1131   1.357       .  S
C1135      C1136   1.416       .  A
C1135      C1140   1.424       .  A
C1135      H1142   1.083       .  S
C1136      C1137   1.404   1_545  A
C1137      C1138   1.407       .  A
C1137      F1144   1.357       .  S
C1138      C1139   1.415   1_565  A
C1138      H1143   1.082       .  S
C1139      C1140   1.415       .  A
C1140      F1141   1.356       .  S
C1145      C1146   1.410   1_556  A
C1145      C1150   1.419       .  A
C1145      H1152   1.083       .  S
C1146      C1147   1.414       .  A
C1147      C1148   1.404       .  A
C1147      F1154   1.358       .  S
C1148      C1149   1.403   1_554  A
C1148      H1153   1.083       .  S
C1149      C1150   1.412       .  A
C1150      F1151   1.356       .  S
C1155      C1156   1.407   1_556  A
C1155      C1160   1.404       .  A
C1155      H1162   1.084       .  S
C1156      C1157   1.410       .  A
C1157      C1158   1.408       .  A
C1157      F1164   1.357       .  S
C1158      C1159   1.405       .  A
C1158      H1163   1.083       .  S
C1159      C1160   1.409   1_554  A
C1160      F1161   1.357       .  S
C1165      C1166   1.413   1_565  A
C1165      C1170   1.423       .  A
C1165      H1172   1.083       .  S
C1166      C1167   1.411       .  A
C1167      C1168   1.408       .  A
C1167      F1174   1.356       .  S
C1168      C1169   1.413       .  A
C1168      H1173   1.083       .  S
C1169      C1170   1.417   1_545  A
C1170      F1171   1.357       .  S
C1175      C1176   1.410       .  A
C1175      C1180   1.410       .  A
C1175      H1182   1.083       .  S
C1176      C1177   1.409   1_545  A
C1177      C1178   1.413       .  A
C1177      F1184   1.357       .  S
C1178      C1179   1.413   1_565  A
C1178      H1183   1.083       .  S
C1179      C1180   1.410       .  A
C1180      F1181   1.357       .  S
C1185      C1186   1.402       .  A
C1185      C1190   1.397       .  A
C1185      H1192   1.082       .  S
C1186      C1187   1.408       .  A
C1187      C1188   1.410       .  A
C1187      F1194   1.357       .  S
C1188      C1189   1.408       .  A
C1188      H1193   1.083       .  S
C1189      C1190   1.410       .  A
C1190      F1191   1.359       .  S
C1195      C1196   1.412       .  A
C1195      C1200   1.420       .  A
C1195      H1202   1.083       .  S
C1196      C1197   1.416       .  A
C1197      C1198   1.412       .  A
C1197      F1204   1.357       .  S
C1198      C1199   1.406       .  A
C1198      H1203   1.083       .  S
C1199      C1200   1.415       .  A
C1200      F1201   1.356       .  S
C1205      C1206   1.408   1_565  A
C1205      C1210   1.410       .  A
C1205      H1212   1.083       .  S
C1206      C1207   1.411       .  A
C1207      C1208   1.406       .  A
C1207      F1214   1.357       .  S
C1208      C1209   1.406       .  A
C1208      H1213   1.083       .  S
C1209      C1210   1.409   1_545  A
C1210      F1211   1.357       .  S
C1215      C1216   1.412       .  A
C1215      C1220   1.412       .  A
C1215      H1222   1.084       .  S
C1216      C1217   1.408   1_545  A
C1217      C1218   1.412       .  A
C1217      F1224   1.357       .  S
C1218      C1219   1.413   1_565  A
C1218      H1223   1.080       .  S
C1219      C1220   1.408       .  A
C1220      F1221   1.357       .  S
C1225      C1226   1.403       .  A
C1225      C1230   1.396       .  A
C1225      H1232   1.083       .  S
C1226      C1227   1.410   1_545  A
C1227      C1228   1.386       .  A
C1227      F1234   1.358       .  S
C1228      C1229   1.399   1_565  A
C1228      H1233   1.083       .  S
C1229      C1230   1.408       .  A
C1230      F1231   1.357       .  S
C1235      C1236   1.401   1_545  A
C1235      C1240   1.379       .  A
C1235      H1242   1.083       .  S
C1236      C1237   1.398       .  A
C1237      C1238   1.381       .  A
C1237      F1244   1.358       .  S
C1238      C1239   1.404       .  A
C1238      H1243   1.083       .  S
C1239      C1240   1.402   1_565  A
C1240      F1241   1.358       .  S
C1245      C1246   1.411       .  A
C1245      C1250   1.413       .  A
C1245      H1252   1.083       .  S
C1246      C1247   1.412   1_554  A
C1247      C1248   1.403       .  A
C1247      F1254   1.358       .  S
C1248      C1249   1.404       .  A
C1248      H1253   1.083       .  S
C1249      C1250   1.410   1_556  A
C1250      F1251   1.357       .  S
C1255      C1256   1.410       .  A
C1255      C1260   1.403       .  A
C1255      H1262   1.083       .  S
C1256      C1257   1.414   1_554  A
C1257      C1258   1.401       .  A
C1257      F1264   1.357       .  S
C1258      C1259   1.403   1_556  A
C1258      H1263   1.083       .  S
C1259      C1260   1.405       .  A
C1260      F1261   1.357       .  S
C1265      C1266   1.404       .  A
C1265      C1270   1.389       .  A
C1265      H1272   1.084       .  S
C1266      C1267   1.406       .  A
C1267      C1268   1.395       .  A
C1267      F1274   1.358       .  S
C1268      C1269   1.400       .  A
C1268      H1273   1.083       .  S
C1269      C1270   1.401       .  A
C1270      F1271   1.357       .  S
C1275      C1276   1.401       .  A
C1275      C1280   1.392       .  A
C1275      H1282   1.083       .  S
C1276      C1277   1.400       .  A
C1277      C1278   1.396       .  A
C1277      F1284   1.357       .  S
C1278      C1279   1.406       .  A
C1278      H1283   1.084       .  S
C1279      C1280   1.405       .  A
C1280      F1281   1.358       .  S
C1285      C1286   1.405       .  A
C1285      C1290   1.393       .  A
C1285      H1292   1.084       .  S
C1286      C1287   1.404       .  A
C1287      C1288   1.394       .  A
C1287      F1294   1.357       .  S
C1288      C1289   1.408       .  A
C1288      H1293   1.083       .  S
C1289      C1290   1.405       .  A
C1290      F1291   1.358       .  S
C1295      C1296   1.400       .  A
C1295      C1300   1.399       .  A
C1295      H1302   1.078       .  S
C1296      C1297   1.411       .  A
C1297      C1298   1.381       .  A
C1297      F1304   1.354   1_556  S
C1298      C1299   1.391       .  A
C1298      H1303   1.084   1_556  S
C1299      C1300   1.407       .  A
C1300      F1301   1.357       .  S
C1305      C1306   1.412       .  A
C1305      C1310   1.374       .  A
C1305      H1312   1.083       .  S
C1306      C1307   1.401   1_554  A
C1307      C1308   1.386       .  A
C1307      F1314   1.357       .  S
C1308      C1309   1.399   1_556  A
C1308      H1313   1.084       .  S
C1309      C1310   1.384       .  A
C1310      F1311   1.358       .  S
C1315      C1316   1.407       .  A
C1315      C1320   1.408       .  A
C1315      H1322   1.082       .  S
C1316      C1317   1.407   1_545  A
C1317      C1318   1.404       .  A
C1317      F1324   1.357       .  S
C1318      C1319   1.408   1_565  A
C1318      H1323   1.084       .  S
C1319      C1320   1.408       .  A
C1320      F1321   1.357       .  S
C1325      C1326   1.416       .  A
C1325      C1330   1.397       .  A
C1325      H1332   1.082       .  S
C1326      C1327   1.411       .  A
C1327      C1328   1.420   1_545  A
C1327      F1334   1.356   1_545  S
C1328      C1329   1.416   1_565  A
C1328      H1333   1.083       .  S
C1329      C1330   1.400       .  A
C1330      F1331   1.355       .  S
C1335      C1336   1.406       .  A
C1335      C1340   1.406       .  A
C1335      H1342   1.082       .  S
C1336      C1337   1.409       .  A
C1337      C1338   1.407       .  A
C1337      F1344   1.356       .  S
C1338      C1339   1.407       .  A
C1338      H1343   1.084       .  S
C1339      C1340   1.409       .  A
C1340      F1341   1.357       .  S
C1345      C1346   1.418       .  A
C1345      C1350   1.396       .  A
C1345      H1352   1.083       .  S
C1346      C1347   1.413       .  A
C1347      C1348   1.430       .  A
C1347      F1354   1.356       .  S
C1348      C1349   1.422       .  A
C1348      H1353   1.082       .  S
C1349      C1350   1.403       .  A
C1350      F1351   1.353       .  S
C1355      C1356   1.405       .  A
C1355      C1360   1.399       .  A
C1355      H1362   1.081       .  S
C1356      C1357   1.402       .  A
C1357      C1358   1.403       .  A
C1357      F1364   1.357       .  S
C1358      C1359   1.411       .  A
C1358      H1363   1.080       .  S
C1359      C1360   1.406       .  A
C1360      F1361   1.357       .  S
C1365      C1366   1.401       .  A
C1365      C1370   1.380       .  A
C1365      H1372   1.084       .  S
C1366      C1367   1.400   1_545  A
C1367      C1368   1.380       .  A
C1367      F1374   1.358       .  S
C1368      C1369   1.396   1_565  A
C1368      H1373   1.079       .  S
C1369      C1370   1.398       .  A
C1370      F1371   1.358       .  S
C1375      C1376   1.401       .  A
C1375      C1380   1.380       .  A
C1375      H1382   1.082       .  S
C1376      C1377   1.408       .  A
C1377      C1378   1.383       .  A
C1377      F1384   1.354       .  S
C1378      C1379   1.394       .  A
C1378      H1383   1.084       .  S
C1379      C1380   1.398       .  A
C1380      F1381   1.359       .  S
C1385      C1386   1.414   1_556  A
C1385      C1390   1.425       .  A
C1385      H1392   1.083       .  S
C1386      C1387   1.418       .  A
C1387      C1388   1.399       .  A
C1387      F1394   1.359       .  S
C1388      C1389   1.400   1_554  A
C1388      H1393   1.082       .  S
C1389      C1390   1.415       .  A
C1390      F1391   1.356       .  S
C1395      C1396   1.410   1_554  A
C1395      C1400   1.410       .  A
C1395      H1402   1.083       .  S
C1396      C1397   1.405       .  A
C1397      C1398   1.402       .  A
C1397      F1404   1.357       .  S
C1398      C1399   1.409       .  A
C1398      H1403   1.084       .  S
C1399      C1400   1.407   1_556  A
C1400      F1401   1.357       .  S
C1405      C1406   1.412       .  A
C1405      C1410   1.405       .  A
C1405      H1412   1.084       .  S
C1406      C1407   1.414       .  A
C1407      C1408   1.421       .  A
C1407      F1414   1.356       .  S
C1408      C1409   1.412       .  A
C1408      H1413   1.083       .  S
C1409      C1410   1.408       .  A
C1410      F1411   1.356       .  S
C1415      C1416   1.407       .  A
C1415      C1420   1.403       .  A
C1415      H1422   1.084       .  S
C1416      C1417   1.413       .  A
C1417      C1418   1.418       .  A
C1417      F1424   1.357       .  S
C1418      C1419   1.411       .  A
C1418      H1423   1.083       .  S
C1419      C1420   1.412       .  A
C1420      F1421   1.356       .  S
C1425      C1426   1.396       .  A
C1425      C1430   1.376       .  A
C1425      H1432   1.084       .  S
C1426      C1427   1.400       .  A
C1427      C1428   1.383       .  A
C1427      F1434   1.358       .  S
C1428      C1429   1.401       .  A
C1428      H1433   1.084       .  S
C1429      C1430   1.399       .  A
C1430      F1431   1.353       .  S
C1435      C1436   1.396       .  A
C1435      C1440   1.380       .  A
C1435      H1442   1.084       .  S
C1436      C1437   1.392       .  A
C1437      C1438   1.380       .  A
C1437      F1444   1.357       .  S
C1438      C1439   1.399       .  A
C1438      H1443   1.084       .  S
C1439      C1440   1.396       .  A
C1440      F1441   1.358       .  S
C1445      C1446   1.392   1_554  A
C1445      C1450   1.375       .  A
C1445      H1452   1.084       .  S
C1446      C1447   1.402       .  A
C1447      C1448   1.393       .  A
C1447      F1454   1.356       .  S
C1448      C1449   1.399   1_556  A
C1448      H1453   1.082       .  S
C1449      C1450   1.404       .  A
C1450      F1451   1.356       .  S
C1455      C1456   1.403   1_554  A
C1455      C1460   1.394       .  A
C1455      H1462   1.084       .  S
C1456      C1457   1.407       .  A
C1457      C1458   1.399       .  A
C1457      F1464   1.358       .  S
C1458      C1459   1.402       .  A
C1458      H1463   1.083       .  S
C1459      C1460   1.406   1_556  A
C1460      F1461   1.358       .  S
C1465      C1466   1.406       .  A
C1465      C1470   1.410       .  A
C1465      H1472   1.083       .  S
C1466      C1467   1.412   1_556  A
C1467      C1468   1.399       .  A
C1467      F1474   1.358       .  S
C1468      C1469   1.404   1_554  A
C1468      H1473   1.083       .  S
C1469      C1470   1.411       .  A
C1470      F1471   1.357       .  S
C1475      C1476   1.404       .  A
C1475      C1480   1.409       .  A
C1475      H1482   1.083       .  S
C1476      C1477   1.413   1_556  A
C1477      C1478   1.414       .  A
C1477      F1484   1.356       .  S
C1478      C1479   1.408   1_554  A
C1478      H1483   1.083       .  S
C1479      C1480   1.414       .  A
C1480      F1481   1.356       .  S
C1485      C1486   1.410   1_655  A
C1485      C1490   1.413       .  A
C1485      H1492   1.083       .  S
C1486      C1487   1.413       .  A
C1487      C1488   1.404       .  A
C1487      F1494   1.357       .  S
C1488      C1489   1.403       .  A
C1488      H1493   1.083       .  S
C1489      C1490   1.410   1_455  A
C1490      F1491   1.356       .  S
C1495      C1496   1.404   1_655  A
C1495      C1500   1.402       .  A
C1495      H1502   1.082       .  S
C1496      C1497   1.410       .  A
C1497      C1498   1.415       .  A
C1497      F1504   1.357       .  S
C1498      C1499   1.411       .  A
C1498      H1503   1.083       .  S
C1499      C1500   1.413   1_455  A
C1500      F1501   1.358       .  S
C1505      C1506   1.415       .  A
C1505      C1510   1.406       .  A
C1505      H1512   1.083       .  S
C1506      C1507   1.410   1_556  A
C1507      C1508   1.415       .  A
C1507      F1514   1.357       .  S
C1508      C1509   1.412   1_554  A
C1508      H1513   1.083       .  S
C1509      C1510   1.404       .  A
C1510      F1511   1.356       .  S
C1515      C1516   1.415       .  A
C1515      C1520   1.427       .  A
C1515      H1522   1.083       .  S
C1516      C1517   1.419   1_455  A
C1517      C1518   1.407       .  A
C1517      F1524   1.359       .  S
C1518      C1519   1.403   1_655  A
C1518      H1523   1.083       .  S
C1519      C1520   1.416       .  A
C1520      F1521   1.356       .  S
C1525      C1526   1.405   1_554  A
C1525      C1530   1.409       .  A
C1525      H1532   1.083       .  S
C1526      C1527   1.413       .  A
C1527      C1528   1.407       .  A
C1527      F1534   1.358       .  S
C1528      C1529   1.406   1_556  A
C1528      H1533   1.082       .  S
C1529      C1530   1.415       .  A
C1530      F1531   1.357       .  S
C1535      C1536   1.413       .  A
C1535      C1540   1.411       .  A
C1535      H1542   1.083       .  S
C1536      C1537   1.416   1_455  A
C1537      C1538   1.426       .  A
C1537      F1544   1.357       .  S
C1538      C1539   1.416   1_655  A
C1538      H1543   1.083       .  S
C1539      C1540   1.411       .  A
C1540      F1541   1.355       .  S
C1545      C1546   1.408       .  A
C1545      C1550   1.407       .  A
C1545      H1552   1.083       .  S
C1546      C1547   1.409       .  A
C1547      C1548   1.408       .  A
C1547      F1554   1.356       .  S
C1548      C1549   1.409       .  A
C1548      H1553   1.084       .  S
C1549      C1550   1.409       .  A
C1550      F1551   1.358       .  S
C1555      C1556   1.404       .  A
C1555      C1560   1.404       .  A
C1555      H1562   1.083       .  S
C1556      C1557   1.409       .  A
C1557      C1558   1.413       .  A
C1557      F1564   1.357       .  S
C1558      C1559   1.410       .  A
C1558      H1563   1.083       .  S
C1559      C1560   1.413       .  A
C1560      F1561   1.358       .  S
C1565      C1566   1.411   1_655  A
C1565      C1570   1.405       .  A
C1565      H1572   1.083       .  S
C1566      C1567   1.412       .  A
C1567      C1568   1.417       .  A
C1567      F1574   1.357       .  S
C1568      C1569   1.411       .  A
C1568      H1573   1.083       .  S
C1569      C1570   1.407   1_455  A
C1570      F1571   1.357       .  S
C1575      C1576   1.400   1_455  A
C1575      C1580   1.401       .  A
C1575      H1582   1.080       .  S
C1576      C1577   1.418       .  A
C1577      C1578   1.426       .  A
C1577      F1584   1.356       .  S
C1578      C1579   1.412   1_655  A
C1578      H1583   1.083       .  S
C1579      C1580   1.417       .  A
C1580      F1581   1.359       .  S
C1585      C1586   1.405       .  A
C1585      C1590   1.370   1_655  A
C1585      H1592   1.083       .  S
C1586      C1587   1.402   1_655  A
C1587      C1588   1.395       .  A
C1587      F1594   1.352       .  S
C1588      C1589   1.401       .  A
C1588      H1593   1.082       .  S
C1589      C1590   1.392       .  A
C1590      F1591   1.360       .  S
C1595      C1596   1.390       .  A
C1595      C1600   1.385       .  A
C1595      H1602   1.081       .  S
C1596      C1597   1.409       .  A
C1597      C1598   1.383       .  A
C1597      F1604   1.358       .  S
C1598      C1599   1.394       .  A
C1598      H1603   1.084       .  S
C1599      C1600   1.408       .  A
C1600      F1601   1.352       .  S
C1605      C1606   1.405       .  A
C1605      C1610   1.409       .  A
C1605      H1612   1.083       .  S
C1606      C1607   1.409       .  A
C1607      C1608   1.396       .  A
C1607      F1614   1.358       .  S
C1608      C1609   1.399       .  A
C1608      H1613   1.083       .  S
C1609      C1610   1.410       .  A
C1610      F1611   1.357       .  S
C1615      C1616   1.414       .  A
C1615      C1620   1.423       .  A
C1615      H1622   1.083       .  S
C1616      C1617   1.416       .  A
C1617      C1618   1.404       .  A
C1617      F1624   1.358       .  S
C1618      C1619   1.404       .  A
C1618      H1623   1.081       .  S
C1619      C1620   1.414       .  A
C1620      F1621   1.356       .  S
C1625      C1626   1.410       .  A
C1625      C1630   1.417       .  A
C1625      H1632   1.083       .  S
C1626      C1627   1.411   1_556  A
C1627      C1628   1.397       .  A
C1627      F1634   1.358       .  S
C1628      C1629   1.400   1_554  A
C1628      H1633   1.081       .  S
C1629      C1630   1.411       .  A
C1630      F1631   1.356       .  S
C1635      C1636   1.401   1_556  A
C1635      C1640   1.400       .  A
C1635      H1642   1.083       .  S
C1636      C1637   1.414       .  A
C1637      C1638   1.418       .  A
C1637      F1644   1.357       .  S
C1638      C1639   1.408   1_554  A
C1638      H1643   1.083       .  S
C1639      C1640   1.417       .  A
C1640      F1641   1.359       .  S
C1645      C1646   1.400       .  A
C1645      C1650   1.389       .  A
C1645      H1652   1.084       .  S
C1646      C1647   1.399       .  A
C1647      C1648   1.379       .  A
C1647      F1654   1.358       .  S
C1648      C1649   1.395       .  A
C1648      H1653   1.084       .  S
C1649      C1650   1.398       .  A
C1650      F1651   1.356       .  S
C1655      C1656   1.394       .  A
C1655      C1660   1.382       .  A
C1655      H1662   1.084       .  S
C1656      C1657   1.393       .  A
C1657      C1658   1.386       .  A
C1657      F1664   1.344       .  S
C1658      C1659   1.397       .  A
C1658      H1663   1.084       .  S
C1659      C1660   1.401       .  A
C1660      F1661   1.355       .  S
C1665      C1666   1.403       .  A
C1665      C1670   1.397       .  A
C1665      H1672   1.083       .  S
C1666      C1667   1.409       .  A
C1667      C1668   1.380       .  A
C1667      F1674   1.357       .  S
C1668      C1669   1.394       .  A
C1668      H1673   1.085       .  S
C1669      C1670   1.403       .  A
C1670      F1671   1.353       .  S
C1675      C1676   1.408       .  A
C1675      C1680   1.402       .  A
C1675      H1682   1.084       .  S
C1676      C1677   1.408       .  A
C1677      C1678   1.413       .  A
C1677      F1684   1.357       .  S
C1678      C1679   1.410       .  A
C1678      H1683   1.082       .  S
C1679      C1680   1.404       .  A
C1680      F1681   1.357       .  S
C1685      C1686   1.414       .  A
C1685      C1690   1.415       .  A
C1685      H1692   1.083       .  S
C1686      C1687   1.413   1_455  A
C1687      C1688   1.408       .  A
C1687      F1694   1.358       .  S
C1688      C1689   1.407   1_655  A
C1688      H1693   1.082       .  S
C1689      C1690   1.409       .  A
C1690      F1691   1.357       .  S
C1695      C1696   1.407       .  A
C1695      C1700   1.404       .  A
C1695      H1702   1.083       .  S
C1696      C1697   1.405   1_455  A
C1697      C1698   1.407       .  A
C1697      F1704   1.356       .  S
C1698      C1699   1.410   1_655  A
C1698      H1703   1.084       .  S
C1699      C1700   1.409       .  A
C1700      F1701   1.358       .  S
C1705      C1706   1.412       .  A
C1705      C1710   1.408       .  A
C1705      H1712   1.083       .  S
C1706      C1707   1.412       .  A
C1707      C1708   1.416       .  A
C1707      F1714   1.357       .  S
C1708      C1709   1.412       .  A
C1708      H1713   1.083       .  S
C1709      C1710   1.407       .  A
C1710      F1711   1.357       .  S
C1715      C1716   1.395       .  A
C1715      C1720   1.392       .  A
C1715      H1722   1.084       .  S
C1716      C1717   1.403       .  A
C1717      C1718   1.392       .  A
C1717      F1724   1.357       .  S
C1718      C1719   1.399       .  A
C1718      H1723   1.083       .  S
C1719      C1720   1.409       .  A
C1720      F1721   1.354       .  S
C1725      C1726   1.394       .  A
C1725      C1730   1.383       .  A
C1725      H1732   1.084       .  S
C1726      C1727   1.404       .  A
C1727      C1728   1.387       .  A
C1727      F1734   1.357       .  S
C1728      C1729   1.398       .  A
C1728      H1733   1.084   1_455  S
C1729      C1730   1.395       .  A
C1730      F1731   1.339       .  S
C1735      C1736   1.399       .  A
C1735      C1740   1.389       .  A
C1735      H1742   1.083       .  S
C1736      C1737   1.407       .  A
C1737      C1738   1.388       .  A
C1737      F1744   1.358       .  S
C1738      C1739   1.398       .  A
C1738      H1743   1.084       .  S
C1739      C1740   1.409       .  A
C1740      F1741   1.358       .  S
C1745      C1746   1.418       .  A
C1745      C1750   1.406       .  A
C1745      H1752   1.083       .  S
C1746      C1747   1.416   1_554  A
C1747      C1748   1.426       .  A
C1747      F1754   1.357       .  S
C1748      C1749   1.417       .  A
C1748      H1753   1.082       .  S
C1749      C1750   1.405   1_556  A
C1750      F1751   1.357       .  S
C1755      C1756   1.409       .  A
C1755      C1760   1.409       .  A
C1755      H1762   1.083       .  S
C1756      C1757   1.408   1_554  A
C1757      C1758   1.404       .  A
C1757      F1764   1.358       .  S
C1758      C1759   1.406       .  A
C1758      H1763   1.082       .  S
C1759      C1760   1.409   1_556  A
C1760      F1761   1.356       .  S
C1765      C1766   1.410       .  A
C1765      C1770   1.416       .  A
C1765      H1772   1.083       .  S
C1766      C1767   1.411       .  A
C1767      C1768   1.399       .  A
C1767      F1774   1.359       .  S
C1768      C1769   1.402       .  A
C1768      H1773   1.082       .  S
C1769      C1770   1.411       .  A
C1770      F1771   1.356       .  S
C1775      C1776   1.401       .  A
C1775      C1780   1.403       .  A
C1775      H1782   1.083       .  S
C1776      C1777   1.409       .  A
C1777      C1778   1.410       .  A
C1777      F1784   1.357       .  S
C1778      C1779   1.408       .  A
C1778      H1783   1.083       .  S
C1779      C1780   1.413       .  A
C1780      F1781   1.358       .  S
C1785      C1786   1.397       .  A
C1785      C1790   1.388       .  A
C1785      H1792   1.084       .  S
C1786      C1787   1.397       .  A
C1787      C1788   1.381       .  A
C1787      F1794   1.352       .  S
C1788      C1789   1.400       .  A
C1788      H1793   1.083       .  S
C1789      C1790   1.407       .  A
C1790      F1791   1.358       .  S
C1795      C1796   1.404       .  A
C1795      C1800   1.390       .  A
C1795      H1802   1.083       .  S
C1796      C1797   1.393       .  A
C1797      C1798   1.378       .  A
C1797      F1804   1.359       .  S
C1798      C1799   1.406       .  A
C1798      H1803   1.079       .  S
C1799      C1800   1.401       .  A
C1800      F1801   1.357       .  S
C1805      C1806   1.393   1_554  A
C1805      C1810   1.375       .  A
C1805      H1812   1.084       .  S
C1806      C1807   1.408       .  A
C1807      C1808   1.394       .  A
C1807      F1814   1.357       .  S
C1808      C1809   1.397       .  A
C1808      H1813   1.083       .  S
C1809      C1810   1.407   1_556  A
C1810      F1811   1.358       .  S
C1815      C1816   1.403       .  A
C1815      C1820   1.390       .  A
C1815      H1822   1.084   1_554  S
C1816      C1817   1.406       .  A
C1817      C1818   1.403       .  A
C1817      F1824   1.357       .  S
C1818      C1819   1.405       .  A
C1818      H1823   1.084       .  S
C1819      C1820   1.398       .  A
C1820      F1821   1.353       .  S
C1825      C1826   1.408       .  A
C1825      C1830   1.417       .  A
C1825      H1832   1.083       .  S
C1826      C1827   1.411       .  A
C1827      C1828   1.403       .  A
C1827      F1834   1.358       .  S
C1828      C1829   1.404       .  A
C1828      H1833   1.083       .  S
C1829      C1830   1.411       .  A
C1830      F1831   1.356       .  S
C1835      C1836   1.414       .  A
C1835      C1840   1.419       .  A
C1835      H1842   1.083       .  S
C1836      C1837   1.411       .  A
C1837      C1838   1.412       .  A
C1837      F1844   1.357       .  S
C1838      C1839   1.409       .  A
C1838      H1843   1.082       .  S
C1839      C1840   1.411       .  A
C1840      F1841   1.357       .  S
C1845      C1846   1.407       .  A
C1845      C1850   1.401       .  A
C1845      H1852   1.084       .  S
C1846      C1847   1.411       .  A
C1847      C1848   1.415       .  A
C1847      F1854   1.357       .  S
C1848      C1849   1.409       .  A
C1848      H1853   1.083       .  S
C1849      C1850   1.411       .  A
C1850      F1851   1.356       .  S
C1855      C1856   1.407       .  A
C1855      C1860   1.403       .  A
C1855      H1862   1.084       .  S
C1856      C1857   1.410       .  A
C1857      C1858   1.410       .  A
C1857      F1864   1.357       .  S
C1858      C1859   1.407       .  A
C1858      H1863   1.083       .  S
C1859      C1860   1.407       .  A
C1860      F1861   1.357       .  S
C1865      C1866   1.412       .  A
C1865      C1870   1.425       .  A
C1865      H1872   1.083       .  S
C1866      C1867   1.418       .  A
C1867      C1868   1.401       .  A
C1867      F1874   1.359       .  S
C1868      C1869   1.399       .  A
C1868      H1873   1.083       .  S
C1869      C1870   1.417       .  A
C1870      F1871   1.356       .  S
C1875      C1876   1.411       .  A
C1875      C1880   1.422       .  A
C1875      H1882   1.083       .  S
C1876      C1877   1.415       .  A
C1877      C1878   1.415       .  A
C1877      F1884   1.357       .  S
C1878      C1879   1.408       .  A
C1878      H1883   1.083       .  S
C1879      C1880   1.416       .  A
C1880      F1881   1.356       .  S
C1885      C1886   1.410       .  A
C1885      C1890   1.414       .  A
C1885      H1892   1.083       .  S
C1886      C1887   1.415       .  A
C1887      C1888   1.412       .  A
C1887      F1894   1.357       .  S
C1888      C1889   1.405       .  A
C1888      H1893   1.083       .  S
C1889      C1890   1.412       .  A
C1890      F1891   1.357       .  S
C1895      C1896   1.414       .  A
C1895      C1900   1.410       .  A
C1895      H1902   1.083       .  S
C1896      C1897   1.414       .  A
C1897      C1898   1.417       .  A
C1897      F1904   1.357       .  S
C1898      C1899   1.411       .  A
C1898      H1903   1.083       .  S
C1899      C1900   1.407       .  A
C1900      F1901   1.357       .  S
C1905      C1906   1.401       .  A
C1905      C1910   1.397       .  A
C1905      H1912   1.084       .  S
C1906      C1907   1.399       .  A
C1907      C1908   1.386       .  A
C1907      F1914   1.354       .  S
C1908      C1909   1.406       .  A
C1908      H1913   1.083       .  S
C1909      C1910   1.405       .  A
C1910      F1911   1.349       .  S
C1915      C1916   1.414       .  A
C1915      C1920   1.422       .  A
C1915      H1922   1.083       .  S
C1916      C1917   1.420       .  A
C1917      C1918   1.406       .  A
C1917      F1924   1.358       .  S
C1918      C1919   1.403       .  A
C1918      H1923   1.082       .  S
C1919      C1920   1.415       .  A
C1920      F1921   1.356       .  S
C1925      C1926   1.413       .  A
C1925      C1930   1.415       .  A
C1925      H1932   1.083       .  S
C1926      C1927   1.409       .  A
C1927      C1928   1.406       .  A
C1927      F1934   1.358       .  S
C1928      C1929   1.410       .  A
C1928      H1933   1.082       .  S
C1929      C1930   1.409       .  A
C1930      F1931   1.355       .  S
C1935      C1936   1.412       .  A
C1935      C1940   1.411       .  A
C1935      H1942   1.082       .  S
C1936      C1937   1.411       .  A
C1937      C1938   1.409       .  A
C1937      F1944   1.354       .  S
C1938      C1939   1.408       .  A
C1938      H1943   1.084       .  S
C1939      C1940   1.409       .  A
C1940      F1941   1.357       .  S
C1945      C1946   1.409       .  A
C1945      C1950   1.400       .  A
C1945      H1952   1.084       .  S
C1946      C1947   1.410       .  A
C1947      C1948   1.413       .  A
C1947      F1954   1.357       .  S
C1948      C1949   1.408       .  A
C1948      H1953   1.083       .  S
C1949      C1950   1.405       .  A
C1950      F1951   1.357       .  S
C1955      C1956   1.398       .  A
C1955      C1960   1.388       .  A
C1955      H1962   1.081       .  S
C1956      C1957   1.397       .  A
C1957      C1958   1.390       .  A
C1957      F1964   1.358       .  S
C1958      C1959   1.406       .  A
C1958      H1963   1.076       .  S
C1959      C1960   1.405       .  A
C1960      F1961   1.358       .  S
C1965      C1966   1.411       .  A
C1965      C1970   1.417       .  A
C1965      H1972   1.083       .  S
C1966      C1967   1.407       .  A
C1967      C1968   1.408       .  A
C1967      F1974   1.357       .  S
C1968      C1969   1.415       .  A
C1968      H1973   1.083       .  S
C1969      C1970   1.416       .  A
C1970      F1971   1.357       .  S
C1975      C1976   1.408       .  A
C1975      C1980   1.408       .  A
C1975      H1982   1.084       .  S
C1976      C1977   1.412       .  A
C1977      C1978   1.416       .  A
C1977      F1984   1.357       .  S
C1978      C1979   1.409       .  A
C1978      H1983   1.083       .  S
C1979      C1980   1.412       .  A
C1980      F1981   1.357       .  S
C1985      C1986   1.418       .  A
C1985      C1990   1.422       .  A
C1985      H1992   1.083       .  S
C1986      C1987   1.404       .  A
C1987      C1988   1.395       .  A
C1987      F1994   1.355       .  S
C1988      C1989   1.411       .  A
C1988      H1993   1.084       .  S
C1989      C1990   1.411       .  A
C1990      F1991   1.356       .  S
C1995      C1996   1.406       .  A
C1995      C2000   1.404       .  A
C1995      H2002   1.082       .  S
C1996      C1997   1.408       .  A
C1997      C1998   1.414       .  A
C1997      F2004   1.357       .  S
C1998      C1999   1.411       .  A
C1998      H2003   1.083       .  S
C1999      C2000   1.410       .  A
C2000      F2001   1.358       .  S
C2005      C2006   1.402       .  A
C2005      C2010   1.389       .  A
C2005      H2012   1.079       .  S
C2006      C2007   1.393       .  A
C2007      C2008   1.379       .  A
C2007      F2014   1.359       .  S
C2008      C2009   1.401       .  A
C2008      H2013   1.082       .  S
C2009      C2010   1.395       .  A
C2010      F2011   1.357       .  S
C2015      C2016   1.398       .  A
C2015      C2020   1.384       .  A
C2015      H2022   1.084       .  S
C2016      C2017   1.395       .  A
C2017      C2018   1.381       .  A
C2017      F2024   1.359       .  S
C2018      C2019   1.399       .  A
C2018      H2023   1.083       .  S
C2019      C2020   1.396       .  A
C2020      F2021   1.353       .  S
C2025      C2026   1.399       .  A
C2025      C2030   1.390       .  A
C2025      H2032   1.083       .  S
C2026      C2027   1.408       .  A
C2027      C2028   1.377       .  A
C2027      F2034   1.358       .  S
C2028      C2029   1.395       .  A
C2028      H2033   1.084       .  S
C2029      C2030   1.407       .  A
C2030      F2031   1.358       .  S
C2035      C2036   1.409       .  A
C2035      C2040   1.413       .  A
C2035      H2042   1.083       .  S
C2036      C2037   1.409       .  A
C2037      C2038   1.398       .  A
C2037      F2044   1.358       .  S
C2038      C2039   1.402       .  A
C2038      H2043   1.082       .  S
C2039      C2040   1.408       .  A
C2040      F2041   1.356       .  S
C2045      C2046   1.415       .  A
C2045      C2050   1.404       .  A
C2045      H2052   1.083       .  S
C2046      C2047   1.414       .  A
C2047      C2048   1.419       .  A
C2047      F2054   1.357       .  S
C2048      C2049   1.413       .  A
C2048      H2053   1.083       .  S
C2049      C2050   1.403       .  A
C2050      F2051   1.357       .  S
C2055      C2056   1.415       .  A
C2055      C2060   1.404       .  A
C2055      H2062   1.084       .  S
C2056      C2057   1.413       .  A
C2057      C2058   1.420       .  A
C2057      F2064   1.357       .  S
C2058      C2059   1.413       .  A
C2058      H2063   1.083       .  S
C2059      C2060   1.404       .  A
C2060      F2061   1.357       .  S
C2065      C2066   1.413       .  A
C2065      C2070   1.400       .  A
C2065      H2072   1.084       .  S
C2066      C2067   1.409       .  A
C2067      C2068   1.419       .  A
C2067      F2074   1.356       .  S
C2068      C2069   1.415       .  A
C2068      H2073   1.083       .  S
C2069      C2070   1.402       .  A
C2070      F2071   1.357       .  S
C2075      C2076   1.405       .  A
C2075      C2080   1.386       .  A
C2075      H2082   1.083       .  S
C2076      C2077   1.398       .  A
C2077      C2078   1.386       .  A
C2077      F2084   1.352       .  S
C2078      C2079   1.406       .  A
C2078      H2083   1.084       .  S
C2079      C2080   1.398       .  A
C2080      F2081   1.357       .  S
C2085      C2086   1.404       .  A
C2085      C2090   1.382       .  A
C2085      H2092   1.084       .  S
C2086      C2087   1.407       .  A
C2087      C2088   1.398       .  A
C2087      F2094   1.353       .  S
C2088      C2089   1.405       .  A
C2088      H2093   1.083       .  S
C2089      C2090   1.400       .  A
C2090      F2091   1.352       .  S
C2095      C2096   1.392       .  A
C2095      C2100   1.375       .  A
C2095      H2102   1.085       .  S
C2096      C2097   1.400       .  A
C2097      C2098   1.392       .  A
C2097      F2104   1.357       .  S
C2098      C2099   1.403       .  A
C2098      H2103   1.083       .  S
C2099      C2100   1.405       .  A
C2100      F2101   1.357       .  S
C2105      C2106   1.406       .  A
C2105      C2110   1.403       .  A
C2105      H2112   1.083       .  S
C2106      C2107   1.407       .  A
C2107      C2108   1.395       .  A
C2107      F2114   1.358       .  S
C2108      C2109   1.401       .  A
C2108      H2113   1.084       .  S
C2109      C2110   1.407       .  A
C2110      F2111   1.357       .  S
C2115      C2116   1.407       .  A
C2115      C2120   1.410       .  A
C2115      H2122   1.083       .  S
C2116      C2117   1.402       .  A
C2117      C2118   1.394       .  A
C2117      F2124   1.358       .  S
C2118      C2119   1.409       .  A
C2118      H2123   1.085       .  S
C2119      C2120   1.407       .  A
C2120      F2121   1.353       .  S
C2125      C2126   1.415       .  A
C2125      C2130   1.398       .  A
C2125      H2132   1.083       .  S
C2126      C2127   1.414       .  A
C2127      C2128   1.417       .  A
C2127      F2134   1.357       .  S
C2128      C2129   1.411       .  A
C2128      H2133   1.083       .  S
C2129      C2130   1.402       .  A
C2130      F2131   1.358       .  S
C2135      C2136   1.406       .  A
C2135      C2140   1.405       .  A
C2135      H2142   1.084       .  S
C2136      C2137   1.410       .  A
C2137      C2138   1.409       .  A
C2137      F2144   1.354       .  S
C2138      C2139   1.405       .  A
C2138      H2143   1.083       .  S
C2139      C2140   1.411       .  A
C2140      F2141   1.356       .  S
C2145      C2146   1.397       .  A
C2145      C2150   1.379       .  A
C2145      H2152   1.084       .  S
C2146      C2147   1.396       .  A
C2147      C2148   1.391       .  A
C2147      F2154   1.357       .  S
C2148      C2149   1.399       .  A
C2148      H2153   1.079       .  S
C2149      C2150   1.396       .  A
C2150      F2151   1.358       .  S
C2155      C2156   1.411       .  A
C2155      C2160   1.400       .  A
C2155      H2162   1.083       .  S
C2156      C2157   1.397       .  A
C2157      C2158   1.379       .  A
C2157      F2164   1.358       .  S
C2158      C2159   1.409       .  A
C2158      H2163   1.084       .  S
C2159      C2160   1.398       .  A
C2160      F2161   1.357       .  S
C2165      C2166   1.403       .  A
C2165      C2170   1.384       .  A
C2165      H2172   1.082       .  S
C2166      C2167   1.403       .  A
C2167      C2168   1.378       .  A
C2167      F2174   1.355       .  S
C2168      C2169   1.395       .  A
C2168      H2173   1.085       .  S
C2169      C2170   1.392       .  A
C2170      F2171   1.354       .  S
C2175      C2176   1.404       .  A
C2175      C2180   1.384       .  A
C2175      H2182   1.084       .  S
C2176      C2177   1.405       .  A
C2177      C2178   1.386       .  A
C2177      F2184   1.357       .  S
C2178      C2179   1.395       .  A
C2178      H2183   1.084       .  S
C2179      C2180   1.395       .  A
C2180      F2181   1.358       .  S
