geometry optimzed in LAMMPS
_audit_creation_date              2020-11-30 
_audit_creation_method            'lammps2cif' 
_symmetry_space_group_name_H-M    'P1' 
_symmetry_Int_Tables_number       1 
_symmetry_cell_setting            triclinic 
loop_ 
_symmetry_equiv_pos_as_xyz 
  x,y,z 
_cell_length_a                    31.320320143757332 
_cell_length_b                    31.27815083361352 
_cell_length_c                    31.354210266186286 
_cell_angle_alpha                 90.00165716508226 
_cell_angle_beta                  89.58403491524375 
_cell_angle_gamma                 89.37427287322419 
loop_ 
_atom_site_label 
_atom_site_type_symbol 
_atom_site_fract_x 
_atom_site_fract_y 
_atom_site_fract_z 
_atom_site_charge 
O1          O  0.99627073  0.12634851  0.06645621    -0.86710
O2          O  0.00603866  0.88192660  0.06964982    -0.86880
O3          O  0.92836022  0.00615763  0.11590430    -0.88550
O4          O  0.07232821  0.00264092  0.11594041    -0.87310
O5          O  0.12429708  0.00613631  0.06402945    -0.86900
O6          O  0.87747547  0.00111606  0.06374907    -0.88270
O7          O  0.00143128  0.93442437  0.12059605    -0.86740
O8          O  0.99957457  0.07420201  0.11782918    -0.86330
Zr9        Zr  0.00047566  0.00378170  0.08310747     2.84310
O10         O  0.04651749  0.96266246  0.03978151    -1.08310
O11         O  0.95565688  0.04410193  0.03826395    -1.09040
C12         C  0.99811989  0.11392018  0.10598363     1.06390
C13         C  0.00372453  0.89459944  0.10909172     1.06340
C14         C  0.88901708  0.00437701  0.10307433     1.09320
C15         C  0.11201635  0.00386394  0.10340466     1.07100
H16         H  0.94177492  0.94064874  0.05807407     0.32660
O17         O  0.95902431  0.95879172  0.04012786    -1.29260
H18         H  0.05872870  0.06698377  0.05717413     0.32330
O19         O  0.04186073  0.04859344  0.03938151    -1.30940
O20         O  0.00990924  0.87839754  0.93057368    -0.86710
O21         O  0.99262344  0.12229804  0.92454018    -0.88210
O22         O  0.88325933  0.92642555  0.99534541    -0.86790
O23         O  0.12844289  0.94032857  0.99303377    -0.86840
O24         O  0.11642403  0.08143059  0.99865105    -0.86550
O25         O  0.87505848  0.06828475  0.99826941    -0.86350
O26         O  0.93220120  0.99850415  0.87244620    -0.86720
O27         O  0.07168621  0.00405392  0.87394251    -0.86190
O28         O  0.87976971  0.00019174  0.92391227    -0.87250
O29         O  0.12323500  0.00850450  0.92531211    -0.86410
O30         O  0.93753410  0.87658774  0.99695352    -0.86810
O31         O  0.92513862  0.12138935  0.99815641    -0.86530
O32         O  0.06288711  0.13194863  0.99655463    -0.86180
O33         O  0.07842335  0.88724160  0.99543892    -0.86590
O34         O  0.00766871  0.92889058  0.87748982    -0.86880
O35         O  0.99548985  0.07012521  0.87301560    -0.88220
Zr36       Zr  0.00527560  0.91633693  0.99848836     2.83100
Zr37       Zr  0.99683705  0.09002451  0.99596256     2.83500
Zr38       Zr  0.91402717  0.99924287  0.99502586     2.84090
Zr39       Zr  0.08769366  0.00783519  0.99554430     2.83360
Zr40       Zr  0.00142025  0.00118608  0.90947232     2.84220
O41         O  0.04210041  0.04820264  0.95174750    -1.08790
O42         O  0.96015374  0.95650521  0.95335799    -1.08290
C43         C  0.01048861  0.88959934  0.89088966     1.06370
C44         C  0.99222558  0.10957813  0.88513755     1.08980
C45         C  0.89735077  0.88712456  0.99597761     1.06540
C46         C  0.11746458  0.90054778  0.99284063     1.06900
C47         C  0.10274819  0.12090086  0.99877212     1.06480
C48         C  0.88615395  0.10813037  0.99883808     1.06030
C49         C  0.89242406  0.99941832  0.88431158     1.06460
C50         C  0.11115548  0.00629524  0.88591673     1.05970
H51         H  0.93765722  0.06083107  0.93499694     0.32650
O52         O  0.95638782  0.04392263  0.95275361    -1.29890
H53         H  0.06495391  0.94439051  0.93675915     0.32670
O54         O  0.04609995  0.96152052  0.95444084    -1.31270
C55         C  0.00460296  0.16413090  0.21720187     0.02900
C56         C  0.00243781  0.13399706  0.18402372    -0.13250
C57         C  0.99941352  0.14713386  0.14089734     0.00400
C58         C  0.99838468  0.19173505  0.13231936    -0.11770
C59         C  0.00063213  0.22176622  0.16610486     0.02900
C60         C  0.00368830  0.20752821  0.20799719    -0.11190
H61         H  0.00290371  0.10035556  0.19214793     0.08490
H62         H  0.99605526  0.20314056  0.09979862     0.06020
H63         H  0.00506157  0.23055342  0.23383218     0.05870
O64         O  0.00692846  0.11911513  0.42416933    -0.75520
O65         O  0.00566286  0.06033683  0.38152644    -0.54430
C66         C  0.00784298  0.10064391  0.38752717     0.78210
O67         O  0.11694246  0.99069734  0.56984028    -0.60120
O68         O  0.06070709  0.99799867  0.61618813    -0.53150
C69         C  0.10068338  0.99308339  0.60767148     0.70220
O70         O  0.11506230  0.98377124  0.42188774    -0.74680
O71         O  0.05650737  0.99363912  0.38177165    -0.55240
C72         C  0.09610684  0.98630234  0.38529457     0.76230
O73         O  0.00299050  0.12336966  0.56895716    -0.59820
O74         O  0.99883760  0.06809190  0.61610729    -0.52940
C75         C  0.00166400  0.10784035  0.60693924     0.72820
Zr76       Zr  0.00209956  0.09218986  0.49728181     2.54710
O77         O  0.05955726  0.14392056  0.49735825    -0.80390
O78         O  0.94862489  0.14929058  0.49580508    -0.93800
Zr79       Zr  0.08814251  0.99290632  0.49719268     2.64680
O80         O  0.14384321  0.04639878  0.49249586    -0.98760
O81         O  0.14131347  0.93566663  0.49970024    -0.80820
O82         O  0.04605886  0.04279308  0.45853971    -0.84180
O83         O  0.04592447  0.04405145  0.53662845    -2.18890
O84         O  0.87270963  0.00339687  0.56864679    -0.67570
O85         O  0.92872117  0.00630169  0.61475364    -0.52130
C86         C  0.88871771  0.00379254  0.60637339     0.71200
O87         O  0.98730716  0.87860294  0.42993225    -0.60480
O88         O  0.99022261  0.93499325  0.38409251    -0.52450
C89         C  0.98804590  0.89511955  0.39215543     0.73010
O90         O  0.98579945  0.88428881  0.57840371    -0.71870
O91         O  0.99583933  0.94231360  0.62038354    -0.50550
C92         C  0.98970383  0.90244222  0.61529381     0.74390
O93         O  0.87893171  0.01751898  0.42118211    -0.67200
O94         O  0.93633344  0.99820259  0.38172742    -0.54400
C95         C  0.89779326  0.01054555  0.38483061     0.72770
Zr96       Zr  0.90374105  0.00807353  0.49672513     2.77540
O97         O  0.84713108  0.95621962  0.48762044    -0.97950
O98         O  0.85185913  0.06626216  0.50311158    -0.78770
Zr99       Zr  0.98967690  0.90875264  0.50287991     2.70070
O100        O  0.93287705  0.85632296  0.50567435    -0.80020
O101        O  0.04356833  0.85214120  0.50361749    -0.99100
Zr102      Zr  0.99633042  0.99837615  0.42526642     2.21500
Zr103      Zr  0.99557012  0.00343858  0.57566931     2.11130
O104        O  0.94617286  0.95989392  0.53889253    -2.47790
O105        O  0.94621443  0.95572168  0.46117787    -0.79810
O106        O  0.95170335  0.05163042  0.53693106    -0.72010
O107        O  0.03944715  0.94827171  0.46142208    -2.32960
O108        O  0.95280489  0.05066422  0.45814643    -2.29170
O109        O  0.03915180  0.95236980  0.53958709    -0.73760
H110        H  0.06400448  0.06005221  0.55551703     0.78230
H111        H  0.05458784  0.92940927  0.44203237     0.79320
H112        H  0.92817834  0.94432317  0.55844126     0.81540
H113        H  0.93832820  0.06855138  0.43761881     0.79150
H114        H  0.12619817  0.91020609  0.48904784     0.42190
H115        H  0.06275111  0.85984287  0.52730340     0.41160
H116        H  0.90874178  0.87024634  0.49067168     0.40840
H117        H  0.85255061  0.93444014  0.50990731     0.39000
H118        H  0.86647479  0.08819057  0.52029135     0.41900
H119        H  0.92754849  0.14004321  0.47441085     0.36680
H120        H  0.08389663  0.12872202  0.48360509     0.42800
H121        H  0.13694937  0.06697021  0.51560145     0.39220
H122        H  0.82088859  0.97136502  0.49732064     0.44140
H123        H  0.96332762  0.17369535  0.48225025     0.42860
H124        H  0.16996620  0.03135720  0.50228773     0.42990
H125        H  0.02818437  0.82661168  0.51390266     0.43350
C126        C  0.83380407  0.00369387  0.21176997     0.02900
C127        C  0.86272029  0.01459678  0.17863980    -0.13250
C128        C  0.85430674  0.00416102  0.13598171     0.00400
C129        C  0.81250850  0.99210933  0.12559400    -0.11770
C130        C  0.78211357  0.98591170  0.15806224     0.02900
C131        C  0.79408734  0.98754108  0.20069396    -0.11190
H132        H  0.89282028  0.02934921  0.18622789     0.08490
H133        H  0.80319269  0.98827600  0.09261105     0.06020
H134        H  0.77138374  0.97813326  0.22500007     0.05870
C135        C  0.00362946  0.78538459  0.16579206     0.02900
C136        C  0.00176887  0.79768425  0.20836025    -0.13250
C137        C  0.99980977  0.84063576  0.21959099     0.00400
C138        C  0.00085570  0.87238509  0.18749993    -0.11770
C139        C  0.00325548  0.86094331  0.14370615     0.02900
C140        C  0.00434733  0.81678539  0.13342568    -0.11190
H141        H  0.00110601  0.77343130  0.23310195     0.08490
H142        H  0.99972930  0.90570648  0.19678580     0.06020
H143        H  0.00521664  0.80663313  0.10043085     0.05870
C144        C  0.21870451  0.01802846  0.16043978     0.02900
C145        C  0.18862454  0.01464953  0.12737015    -0.13250
C146        C  0.14599006  0.00398925  0.13686754     0.00400
C147        C  0.13616592  0.99284209  0.17916430    -0.11770
C148        C  0.16424101  0.00217125  0.21309882     0.02900
C149        C  0.20490499  0.01717868  0.20283525    -0.11190
H150        H  0.19910323  0.01789219  0.09453253     0.08490
H151        H  0.10597733  0.97762404  0.18561401     0.06020
H152        H  0.22723316  0.02517138  0.22759384     0.05870
C153        C  0.01012254  0.83190912  0.78349130     0.02900
C154        C  0.01520102  0.86414350  0.81455812    -0.13250
C155        C  0.01376027  0.85449209  0.85838814     0.00400
C156        C  0.01272587  0.81096589  0.87052568    -0.11770
C157        C  0.01076964  0.77851815  0.83940863     0.02900
C158        C  0.00842243  0.78936331  0.79634640    -0.11190
H159        H  0.01677341  0.89719697  0.80437013     0.08490
H160        H  0.01247257  0.80213276  0.90393357     0.06020
H161        H  0.00358469  0.76443429  0.77293526     0.05870
C162        C  0.22094508  0.00271964  0.83044242     0.02900
C163        C  0.18890504  0.00321036  0.86244070    -0.13250
C164        C  0.14515980  0.00570709  0.85186374     0.00400
C165        C  0.13421729  0.00661787  0.80828688    -0.11770
C166        C  0.16593429  0.00429765  0.77618205     0.02900
C167        C  0.20898654  0.00317205  0.78760338    -0.11190
H168        H  0.19837218  0.00246387  0.89560111     0.08490
H169        H  0.10096859  0.00788585  0.79902093     0.06020
H170        H  0.23334633  0.00251203  0.76289985     0.05870
C171        C  0.99186454  0.16542122  0.77667606     0.02900
C172        C  0.99031451  0.13275613  0.80760253    -0.13250
C173        C  0.98831027  0.14306798  0.85138072     0.00400
C174        C  0.98512539  0.18641690  0.86290050    -0.11770
C175        C  0.98959360  0.21891788  0.83220044     0.02900
C176        C  0.99308695  0.20812684  0.78927432    -0.11190
H177        H  0.99191973  0.09966860  0.79744182     0.08490
H178        H  0.98275151  0.19531258  0.89625028     0.06020
H179        H  0.99803890  0.23287832  0.76559107     0.05870
C180        C  0.83583596  0.98150009  0.77763765     0.02900
C181        C  0.86872286  0.98773530  0.80745469    -0.13250
C182        C  0.85865163  0.99821004  0.85011070     0.00400
C183        C  0.81554442  0.00854264  0.85949147    -0.11770
C184        C  0.78173995  0.99870784  0.83081257     0.02900
C185        C  0.79349224  0.98093819  0.79146891    -0.11190
H186        H  0.90171221  0.98596290  0.79696125     0.08490
H187        H  0.80899533  0.02460147  0.88926751     0.06020
H188        H  0.77006074  0.96935054  0.76962843     0.05870
O189        O  0.56967192  0.11660695  0.00564272    -0.75520
O190        O  0.60564622  0.06150375  0.03387834    -0.54430
C191        C  0.60477622  0.09917424  0.01907525     0.78210
O192        O  0.42757044  0.99326751  0.12472163    -0.60120
O193        O  0.38319247  0.98646438  0.06799983    -0.53150
C194        C  0.39031913  0.99068733  0.10794198     0.70220
O195        O  0.57354617  0.98972608  0.12195685    -0.74680
O196        O  0.61926038  0.98970756  0.06487837    -0.55240
C197        C  0.61110096  0.98894482  0.10483447     0.76230
O198        O  0.41945897  0.11061637  0.01916095    -0.59820
O199        O  0.37983412  0.05195903  0.00722282    -0.52940
C200        C  0.38310608  0.09145082  0.01623171     0.72820
Zr201      Zr  0.49529679  0.08738135  0.00783821     2.54710
O202        O  0.49822547  0.14285783  0.06213144    -0.80390
O203        O  0.48549114  0.14119375  0.95260306    -0.93800
Zr204      Zr  0.50006821  0.99018495  0.09480508     2.64680
O205        O  0.50345729  0.04345274  0.15128967    -0.98760
O206        O  0.49834165  0.93221215  0.14653764    -0.80820
O207        O  0.53623209  0.04102288  0.05204990    -0.84180
O208        O  0.45884978  0.03681537  0.05143609    -2.18890
O209        O  0.42736642  0.00333572  0.88363198    -0.67570
O210        O  0.38133070  0.99602591  0.93974059    -0.52130
C211        C  0.38946911  0.00157141  0.89993755     0.71200
O212        O  0.58205168  0.87845970  0.99967878    -0.60480
O213        O  0.62236203  0.93836575  0.99791263    -0.52450
C214        C  0.61840719  0.89775328  0.99871414     0.73010
O215        O  0.43485595  0.87003306  0.99662071    -0.71870
O216        O  0.38624300  0.92482678  0.00002445    -0.50550
C217        C  0.39639346  0.88516850  0.99722280     0.74390
O218        O  0.57313990  0.00329108  0.88108291    -0.67200
O219        O  0.61592796  0.00818518  0.93885889    -0.54400
C220        C  0.61000701  0.00755815  0.89841309     0.72770
Zr221      Zr  0.50065185  0.99946223  0.91186845     2.77540
O222        O  0.50178927  0.94487751  0.85647316    -0.97950
O223        O  0.49979956  0.05635036  0.85893919    -0.78770
Zr224      Zr  0.50608177  0.90252693  0.99906692     2.70070
O225        O  0.51159857  0.84958042  0.94238900    -0.80020
O226        O  0.50852797  0.84715937  0.05360478    -0.99100
Zr227      Zr  0.57583376  0.99829974  0.00372367     2.21500
Zr228      Zr  0.42414762  0.99047701  0.00315716     2.11130
O229        O  0.46413723  0.94819609  0.95440730    -2.47790
O230        O  0.54243798  0.95234701  0.95490704    -0.79810
O231        O  0.45843479  0.04178134  0.95958714    -0.72010
O232        O  0.54174054  0.94742303  0.04745466    -2.32960
O233        O  0.53766231  0.04609436  0.95897096    -2.29170
O234        O  0.46327061  0.94353331  0.04770612    -0.73760
H235        H  0.43883646  0.05195052  0.06962426     0.78230
H236        H  0.56187143  0.93032216  0.06343519     0.79320
H237        H  0.44563797  0.93147995  0.93659100     0.81540
H238        H  0.55635286  0.06465511  0.94302464     0.79150
H239        H  0.51860428  0.91053277  0.13501060     0.42190
H240        H  0.48454248  0.85432396  0.07317085     0.41160
H241        H  0.51050807  0.86655353  0.91575980     0.40840
H242        H  0.47647145  0.92710536  0.86240780     0.38770
H243        H  0.48568591  0.08074482  0.87366132     0.41900
H244        H  0.51149956  0.13876263  0.93458765     0.36680
H245        H  0.51691247  0.13064093  0.08447708     0.42800
H246        H  0.48508017  0.06730839  0.14125331     0.39220
H247        H  0.49458576  0.96053670  0.82999662     0.44140
H248        H  0.48850206  0.16879073  0.96769407     0.42860
H249        H  0.48748072  0.03087325  0.17549892     0.42990
H250        H  0.49942093  0.82085797  0.03881414     0.43350
O251        O  0.12930382  0.43757473  0.00056284    -0.75520
O252        O  0.07731240  0.38768584  0.00837554    -0.54430
C253        C  0.11627234  0.39853860  0.00277472     0.78210
O254        O  0.00121326  0.57636962  0.12536923    -0.60120
O255        O  0.99495003  0.62026829  0.06772479    -0.53150
C256        C  0.99920421  0.61350249  0.10787729     0.70220
O257        O  0.99753494  0.43230146  0.13001223    -0.74680
O258        O  0.00736260  0.38475301  0.07570570    -0.55240
C259        C  0.00125917  0.39408304  0.11512069     0.76230
O260        O  0.11240104  0.58568560  0.00657330    -0.59820
O261        O  0.05200714  0.62356874  0.99318106    -0.52940
C262        C  0.09190600  0.62122907  0.99971933     0.72820
Zr263      Zr  0.09329827  0.50851228  0.00618985     2.54710
O264        O  0.14653288  0.51086478  0.06227434    -0.80390
O265        O  0.14789295  0.51750900  0.95137924    -0.93800
Zr266      Zr  0.99983955  0.50349033  0.09724474     2.64680
O267        O  0.05463360  0.50114406  0.15187037    -0.98760
O268        O  0.94262675  0.50935899  0.14994432    -0.80820
O269        O  0.05198776  0.46652363  0.05481741    -0.84180
O270        O  0.04331394  0.54511821  0.05082471    -2.18890
O271        O  0.00803467  0.56972904  0.88455739    -0.67570
O272        O  0.99390066  0.61725363  0.93824155    -0.52130
C273        C  0.00252700  0.60791971  0.89932551     0.71200
O274        O  0.88990493  0.41735890  0.00002874    -0.60480
O275        O  0.95123998  0.37817573  0.99898853    -0.52450
C276        C  0.91073612  0.38149571  0.99780973     0.73010
O277        O  0.87493888  0.56441717  0.00181259    -0.71870
O278        O  0.92748054  0.61435218  0.00221363    -0.50550
C279        C  0.88837624  0.60330185  0.00133879     0.74390
O280        O  0.00628094  0.42171995  0.89049829    -0.67200
O281        O  0.00647567  0.37945053  0.94929014    -0.54400
C282        C  0.00639236  0.38478143  0.90905902     0.72770
Zr283      Zr  0.00338616  0.49710558  0.91465186     2.77540
O284        O  0.94673912  0.49644539  0.86186531    -0.97950
O285        O  0.05726138  0.49272985  0.85845585    -0.78770
Zr286      Zr  0.91026887  0.49341480  0.00492885     2.70070
O287        O  0.85492549  0.48985836  0.95101202    -0.80020
O288        O  0.85740104  0.48720329  0.06180417    -0.99100
Zr289      Zr  0.00961111  0.42430699  0.00976539     2.21500
Zr290      Zr  0.99395796  0.57728616  0.00342093     2.11130
O291        O  0.95230961  0.53495217  0.95732760    -2.47790
O292        O  0.96087816  0.45624748  0.96177816    -0.79810
O293        O  0.04457825  0.54215742  0.95888900    -0.72010
O294        O  0.95775890  0.45888176  0.05323800    -2.32960
O295        O  0.05263982  0.46327160  0.96132871    -2.29170
O296        O  0.95023426  0.53834534  0.05091183    -0.73760
H297        H  0.05870924  0.56609292  0.06700402     0.78230
H298        H  0.94165259  0.43871938  0.07002179     0.79320
H299        H  0.93429715  0.55254416  0.93944798     0.81540
H300        H  0.07097691  0.44467216  0.94458428     0.79150
H301        H  0.92038279  0.48975211  0.13954758     0.42190
H302        H  0.86124302  0.51317966  0.07935546     0.41160
H303        H  0.87081490  0.48696252  0.92373024     0.40840
H304        H  0.93296335  0.52501028  0.86397041     0.38770
H305        H  0.08215464  0.50781261  0.87029278     0.41900
H306        H  0.14226124  0.49466773  0.93035887     0.36680
H307        H  0.13574667  0.49107242  0.08441423     0.42800
H308        H  0.07478940  0.52393737  0.14365963     0.39220
H309        H  0.96194197  0.49679767  0.83407348     0.44140
H310        H  0.17484537  0.50858610  0.96526577     0.42860
H311        H  0.04019549  0.51212954  0.17790901     0.42990
H312        H  0.82966678  0.49181492  0.04746946     0.43350
C313        C  0.21323238  0.16835083  0.00439851     0.02900
C314        C  0.17705543  0.14408816  0.01543371    -0.13250
C315        C  0.13616750  0.15518943  0.00085123     0.00400
C316        C  0.12949499  0.19815500  0.98813212    -0.11770
C317        C  0.16494026  0.22577357  0.98340793     0.02900
C318        C  0.20624912  0.20852745  0.98567485    -0.11190
H319        H  0.18074524  0.11511260  0.03387999     0.08490
H320        H  0.09741709  0.21032233  0.98323161     0.06020
H321        H  0.23270029  0.22811550  0.97578440     0.05870
C322        C  0.22424424  0.83991986  0.00098006     0.02900
C323        C  0.19494234  0.87457249  0.99827218    -0.13250
C324        C  0.15150437  0.86676196  0.98988624     0.00400
C325        C  0.13961974  0.82463884  0.98050324    -0.11770
C326        C  0.16695423  0.78998337  0.98959037     0.02900
C327        C  0.20928419  0.79808018  0.99994107    -0.11190
H328        H  0.20610862  0.90700879  0.00196359     0.08490
H329        H  0.10735918  0.81819986  0.97021731     0.06020
H330        H  0.23111484  0.77178358  0.00616438     0.05870
C331        C  0.83152262  0.21593166  0.98552565     0.02900
C332        C  0.86071000  0.18184639  0.98084041    -0.13250
C333        C  0.85214551  0.14197721  0.99913633     0.00400
C334        C  0.81186326  0.13612309  0.01834616    -0.11770
C335        C  0.77843962  0.16669258  0.01228686     0.02900
C336        C  0.78934780  0.20750772  0.99754559    -0.11190
H337        H  0.89235449  0.18831666  0.96831114     0.08490
H338        H  0.80492863  0.10575998  0.03340592     0.06020
H339        H  0.76563130  0.23275398  0.99568331     0.05870
C340        C  0.84539696  0.77570367  0.99061959     0.02900
C341        C  0.87690810  0.80777338  0.99312643    -0.13250
C342        C  0.86479391  0.85163760  0.99531154     0.00400
C343        C  0.82057171  0.86141718  0.99698676    -0.11770
C344        C  0.78942248  0.82890814  0.99507904     0.02900
C345        C  0.80238177  0.78684187  0.99020937    -0.11190
H346        H  0.91031050  0.79848495  0.99347037     0.08490
H347        H  0.81008796  0.89443246  0.99963218     0.06020
H348        H  0.77869430  0.76207364  0.98677154     0.05870
C349        C  0.85141314  0.65875789  0.96000764    -0.02070
C350        C  0.85866955  0.63977784  0.99979783     0.07610
C351        C  0.85613839  0.66508383  0.03653404    -0.02190
C352        C  0.85557568  0.70984437  0.03336590    -0.02190
C353        C  0.85461435  0.72942028  0.99288304     0.07740
C354        C  0.84950887  0.70361304  0.95630103    -0.02390
Br355      Br  0.83876349  0.72959351  0.90169890    -0.00930
Br356      Br  0.84186120  0.62215931  0.91196488    -0.01010
Br357      Br  0.85445380  0.74425546  0.08436165    -0.00970
Br358      Br  0.85147020  0.63690509  0.09049545    -0.00950
C359        C  0.83453559  0.29369083  0.96278336    -0.02070
C360        C  0.84859767  0.25963007  0.98879152     0.07610
C361        C  0.88135523  0.26631309  0.01841106    -0.02190
C362        C  0.90376218  0.30443796  0.01807704    -0.02190
C363        C  0.88800185  0.34020244  0.99485912     0.07740
C364        C  0.85306996  0.33451181  0.96704729    -0.02390
Br365      Br  0.83399789  0.38061991  0.93079363    -0.00930
Br366      Br  0.79192756  0.28383686  0.91991501    -0.01010
Br367      Br  0.95878291  0.30293197  0.04568997    -0.00970
Br368      Br  0.89561669  0.22344540  0.06098307    -0.00950
C369        C  0.17077969  0.71019110  0.97456329    -0.02070
C370        C  0.14969638  0.74604614  0.99303104     0.07610
C371        C  0.11131842  0.74002274  0.01574039    -0.02190
C372        C  0.09117445  0.70050679  0.01455903    -0.02190
C373        C  0.11369465  0.66342155  0.99957508     0.07740
C374        C  0.15464332  0.66866531  0.98103321    -0.02390
Br375      Br  0.18758509  0.62009747  0.96080483    -0.00930
Br376      Br  0.21914478  0.71762224  0.93673375    -0.01010
Br377      Br  0.03120907  0.70149477  0.03052754    -0.00970
Br378      Br  0.08600650  0.78526635  0.05048207    -0.00950
C379        C  0.15647953  0.29076363  0.02873002    -0.02070
C380        C  0.16045033  0.27305339  0.98748226     0.07610
C381        C  0.16466711  0.30094981  0.95226442    -0.02190
C382        C  0.15631567  0.34532171  0.95754317    -0.02190
C383        C  0.14639054  0.36187115  0.99836521     0.07740
C384        C  0.15107959  0.33510875  0.03392201    -0.02390
Br385      Br  0.14935366  0.36016284  0.08962594    -0.00930
Br386      Br  0.15793676  0.25428100  0.07836729    -0.01010
Br387      Br  0.15313632  0.38251759  0.90871171    -0.00970
Br388      Br  0.17861013  0.27817380  0.89682641    -0.00950
C389        C  0.68325100  0.09539174  0.00211101    -0.02070
C390        C  0.64773072  0.12021295  0.01630672     0.07610
C391        C  0.65583081  0.16199531  0.03115113    -0.02190
C392        C  0.69864002  0.17714724  0.03288124    -0.02190
C393        C  0.73269040  0.15294151  0.01404599     0.07740
C394        C  0.72301766  0.11365844  0.99516367    -0.02390
Br395      Br  0.76321978  0.08506149  0.95685943    -0.00930
Br396      Br  0.68245570  0.03454066  0.99851295    -0.01010
Br397      Br  0.71013651  0.22869927  0.06421096    -0.00970
Br398      Br  0.60941555  0.19616182  0.05366993    -0.00950
C399        C  0.28909999  0.86040006  0.96031677    -0.02070
C400        C  0.27092444  0.84604638  0.99892677     0.07610
C401        C  0.29803464  0.83135373  0.03195641    -0.02190
C402        C  0.34266158  0.83595726  0.02792802    -0.02190
C403        C  0.35958984  0.85698514  0.99224487     0.07740
C404        C  0.33335919  0.86525106  0.95710272    -0.02390
Br405      Br  0.35916145  0.88420234  0.90496035    -0.00930
Br406      Br  0.25386837  0.87311090  0.91144997    -0.01010
Br407      Br  0.38121429  0.81290133  0.06986271    -0.00970
Br408      Br  0.27432544  0.80720265  0.08338461    -0.00950
C409        C  0.66817710  0.83423431  0.01803745    -0.02070
C410        C  0.65979546  0.87376917  0.99724916     0.07610
C411        C  0.69541306  0.89657525  0.98261319    -0.02190
C412        C  0.73017877  0.87279947  0.96889918    -0.02190
C413        C  0.74319788  0.83943681  0.99488870     0.07740
C414        C  0.71135011  0.81922643  0.02044551    -0.02390
Br415      Br  0.72593894  0.77403776  0.05960925    -0.00930
Br416      Br  0.62329739  0.80418740  0.04712874    -0.01010
Br417      Br  0.75031241  0.87552067  0.91106690    -0.00970
Br418      Br  0.71418066  0.93633644  0.02521336    -0.00950
C419        C  0.30324440  0.08867068  0.02181217    -0.02070
C420        C  0.34071470  0.11396436  0.02187111     0.07610
C421        C  0.33508507  0.15893728  0.02216063    -0.02190
C422        C  0.29316265  0.17677541  0.02207326    -0.02190
C423        C  0.25752120  0.15069838  0.01147969     0.07740
C424        C  0.26462687  0.10610984  0.00857786    -0.02390
Br425      Br  0.22575711  0.06671303  0.98128231    -0.00930
Br426      Br  0.30098732  0.03025416  0.04183641    -0.01010
Br427      Br  0.28615347  0.23540182  0.04071583    -0.00970
Br428      Br  0.38333826  0.19680334  0.02235147    -0.00950
C429        C  0.69972566  0.00611870  0.81265821    -0.02070
C430        C  0.73503215  0.00693404  0.84207451     0.07610
C431        C  0.72404109  0.01496254  0.88486952    -0.02190
C432        C  0.68359405  0.03117491  0.89395331    -0.02190
C433        C  0.64983885  0.01275549  0.87264958     0.07740
C434        C  0.65712816  0.00290635  0.82919374    -0.02390
Br435      Br  0.61062423  0.98785511  0.79264094    -0.00930
Br436      Br  0.70568398  0.01766718  0.75244748    -0.01010
Br437      Br  0.67713981  0.09222662  0.89372138    -0.00970
Br438      Br  0.74932652  0.98116247  0.92918947    -0.00950
C439        C  0.03068561  0.30888622  0.89777814    -0.02070
C440        C  0.00605887  0.34461147  0.88388242     0.07610
C441        C  0.97717335  0.33909173  0.84991021    -0.02190
C442        C  0.97124788  0.29795654  0.83246264    -0.02190
C443        C  0.99713591  0.26332646  0.84604376     0.07740
C444        C  0.02961717  0.27035810  0.87562285    -0.02390
Br445      Br  0.07312787  0.22701855  0.88608478    -0.00930
Br446      Br  0.06026905  0.30740317  0.95125643    -0.01010
Br447      Br  0.92565112  0.28880776  0.79259592    -0.00970
Br448      Br  0.94125764  0.38587763  0.83115807    -0.00950
C449        C  0.28080437  0.04050954  0.86594326    -0.02070
C450        C  0.26695942  0.00533399  0.84187162     0.07610
C451        C  0.29767945  0.97478274  0.82746528    -0.02190
C452        C  0.34049421  0.97741020  0.84119862    -0.02190
C453        C  0.35150915  0.00762404  0.87242588     0.07740
C454        C  0.32241063  0.04086845  0.88226191    -0.02390
Br455      Br  0.34083798  0.08867839  0.91558001    -0.00930
Br456      Br  0.24385587  0.08984516  0.87362402    -0.01010
Br457      Br  0.38428572  0.94172789  0.81563325    -0.00970
Br458      Br  0.28161964  0.92826714  0.79066258    -0.00950
C459        C  0.04710075  0.71201294  0.86533037    -0.02070
C460        C  0.00969045  0.73272666  0.85098144     0.07610
C461        C  0.97282583  0.70843868  0.84279741    -0.02190
C462        C  0.97244050  0.66457472  0.85265724    -0.02190
C463        C  0.00824059  0.64517322  0.87135987     0.07740
C464        C  0.04641344  0.66806814  0.87458564    -0.02390
Br465      Br  0.09786419  0.63801551  0.88981368    -0.00930
Br466      Br  0.09922947  0.74356247  0.87215721    -0.01010
Br467      Br  0.92413032  0.63007355  0.83894646    -0.00970
Br468      Br  0.92231294  0.73537169  0.81973022    -0.00950
C469        C  0.27845901  0.96930463  0.14034789    -0.02070
C470        C  0.26468245  0.01079653  0.15202956     0.07610
C471        C  0.29518652  0.04267989  0.15991030    -0.02190
C472        C  0.33874674  0.03444328  0.15095338    -0.02190
C473        C  0.35160545  0.99426542  0.13468376     0.07740
C474        C  0.32179540  0.96120629  0.13220303    -0.02390
Br475      Br  0.34072870  0.90505253  0.11592996    -0.00930
Br476      Br  0.23813456  0.92318630  0.13511004    -0.01010
Br477      Br  0.38029226  0.07882805  0.15795236    -0.00970
Br478      Br  0.27710985  0.09797213  0.18075555    -0.00950
C479        C  0.96743588  0.67064049  0.15373180    -0.02070
C480        C  0.00362209  0.65196749  0.13453873     0.07610
C481        C  0.04224264  0.67456359  0.13381970    -0.02190
C482        C  0.04269641  0.71780742  0.14620379    -0.02190
C483        C  0.00399253  0.73905324  0.15619241     0.07740
C484        C  0.96680052  0.71468333  0.16281161    -0.02390
Br485      Br  0.91531414  0.74119585  0.18482126    -0.00930
Br486      Br  0.92143459  0.63464147  0.17173766    -0.01010
Br487      Br  0.09621128  0.74674553  0.15317591    -0.00970
Br488      Br  0.09426906  0.64580791  0.11652025    -0.00950
C489        C  0.71503599  0.02542480  0.14426212    -0.02070
C490        C  0.73642116  0.98581264  0.14859264     0.07610
C491        C  0.71357782  0.94739271  0.14743150    -0.02190
C492        C  0.66974131  0.94848810  0.13831230    -0.02190
C493        C  0.64895938  0.98797576  0.13143456     0.07740
C494        C  0.67113540  0.02644955  0.13639399    -0.02390
Br495      Br  0.64167514  0.08050561  0.12957169    -0.00930
Br496      Br  0.74621216  0.07834457  0.14741329    -0.01010
Br497      Br  0.63855428  0.89612613  0.13194151    -0.00970
Br498      Br  0.74282641  0.89358949  0.15597742    -0.00950
C499        C  0.85789480  0.03498634  0.67192640    -0.02070
C500        C  0.86053964  0.00003405  0.64404588     0.07610
C501        C  0.84810088  0.95927512  0.65854396    -0.02190
C502        C  0.83873294  0.95286614  0.70224012    -0.02190
C503        C  0.84336704  0.98697000  0.73130991     0.07740
C504        C  0.85023797  0.02861892  0.71555408    -0.02390
Br505      Br  0.84903552  0.07729826  0.75354137    -0.00930
Br506      Br  0.86528728  0.09149459  0.64964324    -0.01010
Br507      Br  0.82275214  0.89711205  0.72257839    -0.00970
Br508      Br  0.84913536  0.91156553  0.61966140    -0.00950
C509        C  0.96785789  0.15796975  0.65863650    -0.02070
C510        C  0.00445295  0.13617464  0.64403839     0.07610
C511        C  0.03919157  0.13018193  0.67145917    -0.02190
C512        C  0.03527855  0.13969146  0.71494056    -0.02190
C513        C  0.99620123  0.15570702  0.73092432     0.07740
C514        C  0.96298058  0.16653730  0.70246132    -0.02390
Br515      Br  0.90988256  0.19022074  0.72366163    -0.00930
Br516      Br  0.92581576  0.17695054  0.61813473    -0.01010
Br517      Br  0.08326636  0.13046265  0.75232128    -0.00970
Br518      Br  0.09217441  0.10958726  0.64835017    -0.00950
C519        C  0.16855259  0.02808693  0.69898389    -0.02070
C520        C  0.15432495  0.99903441  0.73065691     0.07610
C521        C  0.13177956  0.96236849  0.71813351    -0.02190
C522        C  0.11941727  0.95768518  0.67554172    -0.02190
C523        C  0.12863834  0.98937491  0.64530757     0.07740
C524        C  0.15710346  0.02202347  0.65593532    -0.02390
Br525      Br  0.18136767  0.05688168  0.61136025    -0.00930
Br526      Br  0.20064465  0.07796601  0.71443064    -0.01010
Br527      Br  0.09317846  0.90607316  0.65689394    -0.00970
Br528      Br  0.11818527  0.91788680  0.75871443    -0.00950
C529        C  0.02162050  0.82503495  0.70309451    -0.02070
C530        C  0.00016377  0.84348895  0.73866017     0.07610
C531        C  0.96884239  0.87491910  0.73158966    -0.02190
C532        C  0.96738470  0.89566504  0.69234889    -0.02190
C533        C  0.98772971  0.87741110  0.65581957     0.07740
C534        C  0.01225940  0.83952742  0.66133736    -0.02390
Br535      Br  0.03878201  0.81131279  0.61310111    -0.00930
Br536      Br  0.06711053  0.78373031  0.71111031    -0.01010
Br537      Br  0.94508556  0.95303384  0.69433506    -0.00970
Br538      Br  0.92756873  0.89008773  0.77564338    -0.00950
C539        C  0.10705854  0.00303826  0.26871451    -0.02070
C540        C  0.15037119  0.99651052  0.25862682     0.07610
C541        C  0.17786939  0.98182997  0.29215347    -0.02190
C542        C  0.16225823  0.98005239  0.33496372    -0.02190
C543        C  0.11783360  0.98274412  0.34251469     0.07740
C544        C  0.09131577  0.98660473  0.30627165    -0.02390
Br545      Br  0.03723969  0.95856380  0.30150943    -0.00930
Br546      Br  0.06727845  0.03613884  0.23468740    -0.01010
Br547      Br  0.20111165  0.97063322  0.38141186    -0.00970
Br548      Br  0.23433490  0.95898702  0.28079196    -0.00950
C549        C  0.95531284  0.85830920  0.28404314    -0.02070
C550        C  0.99588364  0.85083039  0.26559377     0.07610
C551        C  0.03201042  0.84771583  0.29206604    -0.02190
C552        C  0.02808608  0.85586964  0.33612718    -0.02190
C553        C  0.98827076  0.86817901  0.35369537     0.07740
C554        C  0.95171059  0.86832570  0.32771943    -0.02390
Br555      Br  0.89723350  0.88542233  0.35160753    -0.00930
Br556      Br  0.90470732  0.85389703  0.24965591    -0.01010
Br557      Br  0.07812061  0.85540115  0.37166911    -0.00970
Br558      Br  0.08727754  0.83464550  0.26746992    -0.00950
C559        C  0.83330832  0.02131663  0.33400516    -0.02070
C560        C  0.87732789  0.01561767  0.34194721     0.07610
C561        C  0.90461161  0.01089406  0.30598746    -0.02190
C562        C  0.88898189  0.99720839  0.26759479    -0.02190
C563        C  0.84652786  0.00686980  0.25741967     0.07740
C564        C  0.81874645  0.02145435  0.29102169    -0.02390
Br565      Br  0.76301302  0.04545781  0.27936276    -0.00930
Br566      Br  0.79374910  0.03169421  0.38022614    -0.01010
Br567      Br  0.92759185  0.96407235  0.23170905    -0.00970
Br568      Br  0.96023350  0.03574875  0.30265584    -0.00950
C569        C  0.03688838  0.29289418  0.16411163    -0.02070
C570        C  0.99943318  0.26863526  0.15924689     0.07610
C571        C  0.95995092  0.29030519  0.15505304    -0.02190
C572        C  0.95920814  0.33434290  0.14558315    -0.02190
C573        C  0.99767828  0.35709234  0.14389270     0.07740
C574        C  0.03524134  0.33749199  0.15839790    -0.02390
Br575      Br  0.08223026  0.37308313  0.17390232    -0.00930
Br576      Br  0.09015247  0.26545521  0.17883712    -0.01010
Br577      Br  0.90617683  0.36330107  0.13287639    -0.00970
Br578      Br  0.90735446  0.26033402  0.16452965    -0.00950
C579        C  0.96916154  0.15287449  0.28767600    -0.02070
C580        C  0.00650540  0.15113877  0.26236365     0.07610
C581        C  0.04594934  0.14034382  0.28102290    -0.02190
C582        C  0.04719798  0.12658002  0.32371123    -0.02190
C583        C  0.00946808  0.12634840  0.34845659     0.07740
C584        C  0.97079044  0.14110835  0.33088575    -0.02390
Br585      Br  0.91924878  0.14107891  0.36502534    -0.00930
Br586      Br  0.91545108  0.16970320  0.26261836    -0.01010
Br587      Br  0.10003354  0.10610072  0.34790903    -0.00970
Br588      Br  0.09809793  0.14511060  0.24824683    -0.00950
loop_ 
_geom_bond_atom_site_label_1 
_geom_bond_atom_site_label_2 
_geom_bond_distance 
_geom_bond_site_symmetry_2 
_ccdc_geom_bond_type 
O1          Zr37   2.485   1_554  S
O1           C12   1.300       .  A
O2          Zr36   2.477   1_554  S
O2           C13   1.300       .  A
O3           Zr9   2.475   1_655  S
O3           C14   1.301       .  A
O4           Zr9   2.481       .  S
O4           C15   1.302       .  A
O5          Zr39   2.442   1_554  S
O5           C15   1.293       .  A
O6          Zr38   2.433   1_544  S
O6           C14   1.292       .  A
O7           Zr9   2.467   1_565  S
O7           C13   1.298       .  A
O8           Zr9   2.457   1_655  S
O8           C12   1.297       .  A
Zr9          O10   2.347   1_545  S
Zr9          O11   2.351   1_455  S
Zr9          O19   2.353       .  S
Zr9          O17   2.355   1_445  S
O10         Zr36   2.347   1_554  S
O10         Zr39   2.366   1_564  S
O11         Zr37   2.346   1_554  S
O11         Zr38   2.361   1_544  S
C12          C57   1.510       .  S
C13         C139   1.512       .  S
C14         C128   1.493       .  S
C15         C146   1.500       .  S
H16          O17   0.966       .  S
O17         Zr36   2.345   1_654  S
O17         Zr38   2.362   1_554  S
H18          O19   0.965       .  S
O19         Zr37   2.347   1_454  S
O19         Zr39   2.347   1_554  S
O20         Zr36   2.440       .  S
O20          C43   1.293       .  A
O21         Zr37   2.460       .  S
O21          C44   1.298       .  A
O22         Zr38   2.483       .  S
O22          C45   1.302       .  A
O23         Zr39   2.456   1_565  S
O23          C46   1.295       .  A
O24         Zr39   2.483       .  S
O24          C47   1.302       .  A
O25         Zr38   2.471   1_545  S
O25          C48   1.298       .  A
O26         Zr40   2.469   1_665  S
O26          C49   1.298       .  A
O27         Zr40   2.462       .  S
O27          C50   1.297       .  A
O28         Zr38   2.481   1_545  S
O28          C49   1.301   1_545  A
O29         Zr39   2.460       .  S
O29          C50   1.297       .  A
O30         Zr36   2.472   1_655  S
O30          C45   1.298       .  A
O31         Zr37   2.441       .  S
O31          C48   1.294       .  A
O32         Zr37   2.462   1_455  S
O32          C47   1.294       .  A
O33         Zr36   2.457       .  S
O33          C46   1.298       .  A
O34         Zr40   2.479   1_565  S
O34          C43   1.301       .  A
O35         Zr40   2.446   1_655  S
O35          C44   1.294       .  A
Zr36         O42   2.360   1_455  S
Zr36         O54   2.357       .  S
Zr37         O41   2.361   1_655  S
Zr37         O52   2.363       .  S
Zr38         O42   2.348       .  S
Zr38         O52   2.342   1_565  S
Zr39         O41   2.347       .  S
Zr39         O54   2.350   1_545  S
Zr40         O41   2.368       .  S
Zr40         O42   2.352   1_445  S
Zr40         O54   2.340   1_545  S
Zr40         O52   2.356   1_455  S
C43         C155   1.500       .  S
C44         C173   1.494       .  S
C45         C342   1.516       .  S
C46         C324   1.495       .  S
C47         C315   1.508   1_556  S
C48         C333   1.494       .  S
C49         C182   1.512       .  S
C50         C164   1.503       .  S
H51          O52   0.965       .  S
H53          O54   0.965       .  S
C55         C580   1.475       .  S
C55          C56   1.406       .  A
C55          C60   1.388       .  A
C56          C57   1.417   1_455  A
C56          H61   1.083       .  S
C57          C58   1.421       .  A
C58          C59   1.418   1_655  A
C58          H62   1.083       .  S
C59         C570   1.482   1_455  S
C59          C60   1.391       .  A
C60          H63   1.085       .  S
O64         Zr76   2.446       .  S
O64          C66   1.286       .  A
O65        Zr102   2.394   1_445  S
O65          C66   1.277       .  A
C66         C583   1.466       .  S
O67         Zr79   2.457       .  S
O67          C69   1.289       .  A
O68        Zr103   2.416   1_465  S
O68          C69   1.286       .  A
C69         C523   1.478       .  S
O70         Zr79   2.517       .  S
O70          C72   1.298       .  A
O71        Zr102   2.322   1_455  S
O71          C72   1.264       .  A
C72         C543   1.503       .  S
O73         Zr76   2.450       .  S
O73          C75   1.287       .  A
O74        Zr103   2.390       .  S
O74          C75   1.280   1_655  A
C75         C510   1.466       .  S
Zr76         O82   2.385       .  S
Zr76         O83   2.378       .  S
Zr76        O106   2.379   1_455  S
Zr76        O108   2.376   1_455  S
Zr76         O77   2.433       .  S
Zr76         O78   2.436   1_455  S
O77         H120   0.990       .  S
O78         H119   0.990       .  S
O78         H123   0.990       .  S
Zr79         O83   2.401   1_565  S
Zr79         O82   2.370   1_565  S
Zr79        O107   2.367       .  S
Zr79        O109   2.396       .  S
Zr79         O80   2.434   1_565  S
Zr79         O81   2.433       .  S
O80         H121   0.990       .  S
O80         H124   0.990       .  S
O81         H114   0.990       .  S
O82        Zr102   2.348   1_445  S
O83        Zr103   2.370   1_455  S
O83         H110   0.966       .  S
O84         Zr96   2.454       .  S
O84          C86   1.288       .  A
O85        Zr103   2.419       .  S
O85          C86   1.285       .  A
C86         C500   1.475       .  S
O87         Zr99   2.476       .  S
O87          C89   1.292       .  A
O88        Zr102   2.376       .  S
O88          C89   1.275       .  A
C89         C553   1.471       .  S
O90         Zr99   2.491       .  S
O90          C92   1.296       .  A
O91        Zr103   2.371   1_565  S
O91          C92   1.274       .  A
C92         C533   1.494       .  S
O93         Zr96   2.515       .  S
O93          C95   1.297       .  A
O94        Zr102   2.331       .  S
O94          C95   1.266   1_565  A
C95         C560   1.501       .  S
Zr96        O104   2.401   1_545  S
Zr96        O105   2.371   1_545  S
Zr96        O108   2.370       .  S
Zr96        O106   2.403       .  S
Zr96         O97   2.434   1_545  S
Zr96         O98   2.434       .  S
O97         H117   0.990       .  S
O97         H122   0.990       .  S
O98         H118   0.990       .  S
Zr99        O105   2.388       .  S
Zr99        O104   2.371       .  S
Zr99        O109   2.379   1_655  S
Zr99        O107   2.379   1_655  S
Zr99        O100   2.434       .  S
Zr99        O101   2.433   1_655  S
O100        H116   0.990       .  S
O101        H115   0.990       .  S
O101        H125   0.990       .  S
Zr102       O105   2.352       .  S
Zr102       O107   2.354   1_655  S
Zr102       O108   2.351   1_565  S
Zr103       O104   2.377   1_545  S
Zr103       O106   2.369       .  S
Zr103       O109   2.372   1_645  S
O104        H112   0.965       .  S
O107        H111   0.966       .  S
O108        H113   0.965       .  S
C126        C563   1.492       .  S
C126        C127   1.417       .  A
C126        C131   1.394   1_545  A
C127        C128   1.404       .  A
C127        H132   1.082       .  S
C128        C129   1.407   1_545  A
C129        C130   1.404       .  A
C129        H133   1.084       .  S
C130        C490   1.464       .  S
C130        C131   1.392       .  A
C131        H134   1.082       .  S
C135        C483   1.480       .  S
C135        C136   1.390       .  A
C135        C140   1.413       .  A
C136        C137   1.389   1_455  A
C136        H141   1.085       .  S
C137        C550   1.481       .  S
C137        C138   1.414   1_655  A
C138        C139   1.420       .  A
C138        H142   1.082   1_455  S
C139        C140   1.418       .  A
C140        H143   1.082       .  S
C144        C470   1.477       .  S
C144        C145   1.411       .  A
C144        C149   1.395       .  A
C145        C146   1.410       .  A
C145        H150   1.083       .  S
C146        C147   1.404   1_545  A
C147        C148   1.418   1_565  A
C147        H151   1.081       .  S
C148        C540   1.500   1_545  S
C148        C149   1.398       .  A
C149        H152   1.080       .  S
C153        C530   1.486       .  S
C153        C154   1.413       .  A
C153        C158   1.392       .  A
C154        C155   1.408       .  A
C154        H159   1.084       .  S
C155        C156   1.414       .  A
C156        C157   1.410       .  A
C156        H160   1.083       .  S
C157        C460   1.478       .  S
C157        C158   1.394       .  A
C158        H161   1.083       .  S
C162        C450   1.491       .  S
C162        C163   1.414       .  A
C162        C167   1.397       .  A
C163        C164   1.413       .  A
C163        H168   1.083       .  S
C164        C165   1.411       .  A
C165        C166   1.410       .  A
C165        H169   1.083       .  S
C166        C520   1.485   1_545  S
C166        C167   1.398       .  A
C167        H170   1.083       .  S
C171        C513   1.471       .  S
C171        C172   1.410       .  A
C171        C176   1.394       .  A
C172        C173   1.411       .  A
C172        H177   1.083       .  S
C173        C174   1.405       .  A
C174        C175   1.407       .  A
C174        H178   1.084       .  S
C175        C443   1.477       .  S
C175        C176   1.391       .  A
C176        H179   1.084       .  S
C180        C503   1.480       .  S
C180        C181   1.411       .  A
C180        C185   1.393       .  A
C181        C182   1.410       .  A
C181        H186   1.083       .  S
C182        C183   1.414   1_565  A
C183        C184   1.430   1_545  A
C183        H187   1.077       .  S
C184        C430   1.522   1_565  S
C184        C185   1.398       .  A
C185        H188   1.073       .  S
O189       Zr201   2.512       .  S
O189        C191   1.295       .  A
O190       Zr227   2.393   1_545  S
O190        C191   1.266       .  A
C191        C390   1.506       .  S
O192       Zr204   2.451       .  S
O192        C194   1.287       .  A
O193       Zr228   2.400       .  S
O193        C194   1.281       .  A
C194        C473   1.472       .  S
O195       Zr204   2.459       .  S
O195        C197   1.289       .  A
O196       Zr227   2.372       .  S
O196        C197   1.277       .  A
C197        C493   1.455       .  S
O198       Zr201   2.499       .  S
O198        C200   1.296       .  A
O199       Zr228   2.362   1_545  S
O199        C200   1.272       .  A
C200        C420   1.505       .  S
Zr201       O207   2.378       .  S
Zr201       O208   2.385       .  S
Zr201       O231   2.391   1_554  S
Zr201       O233   2.389   1_554  S
Zr201       O202   2.434       .  S
Zr201       O203   2.434   1_554  S
O202        H245   0.990       .  S
O203        H244   0.990       .  S
O203        H248   0.990       .  S
Zr204       O208   2.372   1_565  S
Zr204       O207   2.372   1_565  S
Zr204       O232   2.373       .  S
Zr204       O234   2.387       .  S
Zr204       O205   2.435   1_565  S
Zr204       O206   2.434       .  S
O205        H246   0.990       .  S
O205        H249   0.990       .  S
O206        H239   0.990       .  S
O207       Zr227   2.357   1_545  S
O208       Zr228   2.373   1_545  S
O208        H235   0.965       .  S
O209       Zr221   2.468   1_545  S
O209        C211   1.291       .  A
O210       Zr228   2.412   1_556  S
O210        C211   1.284   1_565  A
C211        C453   1.484       .  S
O212       Zr224   2.488       .  S
O212        C214   1.295       .  A
O213       Zr227   2.368   1_556  S
O213        C214   1.278       .  A
C214        C410   1.491       .  S
O215       Zr224   2.463       .  S
O215        C217   1.290       .  A
O216       Zr228   2.385       .  S
O216        C217   1.280   1_554  A
C217        C403   1.468       .  S
O218       Zr221   2.465   1_545  S
O218        C220   1.288       .  A
O219       Zr227   2.404   1_546  S
O219        C220   1.283       .  A
C220        C433   1.492       .  S
Zr221       O229   2.382       .  S
Zr221       O230   2.385       .  S
Zr221       O233   2.390   1_565  S
Zr221       O231   2.382   1_565  S
Zr221       O222   2.435       .  S
Zr221       O223   2.433   1_565  S
O222        H242   0.990       .  S
O222        H247   0.990       .  S
O223        H243   0.990       .  S
Zr224       O230   2.379       .  S
Zr224       O229   2.390       .  S
Zr224       O234   2.388   1_556  S
Zr224       O232   2.362   1_556  S
Zr224       O225   2.433       .  S
Zr224       O226   2.435   1_556  S
O225        H241   0.990       .  S
O226        H240   0.990       .  S
O226        H250   0.990       .  S
Zr227       O230   2.358   1_554  S
Zr227       O232   2.360       .  S
Zr227       O233   2.370   1_564  S
Zr228       O229   2.364   1_554  S
Zr228       O231   2.369   1_564  S
Zr228       O234   2.365       .  S
O229        H237   0.966       .  S
O232        H236   0.965       .  S
O233        H238   0.966       .  S
O251       Zr263   2.484       .  S
O251        C253   1.293       .  A
O252       Zr289   2.399       .  S
O252        C253   1.281       .  A
C253        C383   1.483   1_554  S
O254       Zr266   2.445   1_455  S
O254        C256   1.286   1_455  A
O255       Zr290   2.424       .  S
O255        C256   1.284       .  A
C256        C480   1.473   1_655  S
O257       Zr266   2.454       .  S
O257        C259   1.287   1_655  A
O258       Zr289   2.410       .  S
O258        C259   1.282       .  A
C259        C573   1.472   1_455  S
O260       Zr263   2.493       .  S
O260        C262   1.296   1_554  A
O261       Zr290   2.357   1_456  S
O261        C262   1.269       .  A
C262        C373   1.492       .  S
Zr263       O269   2.394       .  S
Zr263       O270   2.377       .  S
Zr263       O293   2.373   1_554  S
Zr263       O295   2.381   1_554  S
Zr263       O264   2.434       .  S
Zr263       O265   2.434   1_554  S
O264        H307   0.990       .  S
O265        H306   0.990       .  S
O265        H310   0.990       .  S
Zr266       O270   2.383   1_655  S
Zr266       O269   2.388   1_655  S
Zr266       O294   2.378       .  S
Zr266       O296   2.389       .  S
Zr266       O267   2.434   1_655  S
Zr266       O268   2.434       .  S
O267        H308   0.990       .  S
O267        H311   0.990       .  S
O268        H301   0.990       .  S
O269       Zr289   2.359       .  S
O270       Zr290   2.369   1_455  S
O270        H297   0.965       .  S
O271       Zr283   2.465       .  S
O271        C273   1.290       .  A
O272       Zr290   2.396   1_556  S
O272        C273   1.281   1_655  A
C273        C463   1.470       .  S
O274       Zr286   2.475       .  S
O274        C276   1.293   1_554  A
O275       Zr289   2.367   1_656  S
O275        C276   1.273       .  A
C276        C363   1.485       .  S
O277       Zr286   2.473       .  S
O277        C279   1.291       .  A
O278       Zr290   2.373       .  S
O278        C279   1.277       .  A
C279        C350   1.465   1_554  S
O280       Zr283   2.477       .  S
O280        C282   1.294       .  A
O281       Zr289   2.362   1_556  S
O281        C282   1.272       .  A
C282        C440   1.484       .  S
Zr283       O291   2.383   1_455  S
Zr283       O292   2.366   1_455  S
Zr283       O295   2.375       .  S
Zr283       O293   2.375       .  S
Zr283       O284   2.435   1_455  S
Zr283       O285   2.434       .  S
O284        H304   0.990       .  S
O284        H309   0.990       .  S
O285        H305   0.990       .  S
Zr286       O292   2.371   1_554  S
Zr286       O291   2.379   1_554  S
Zr286       O296   2.384       .  S
Zr286       O294   2.381       .  S
Zr286       O287   2.433   1_554  S
Zr286       O288   2.434       .  S
O287        H303   0.990       .  S
O288        H302   0.990       .  S
O288        H312   0.990       .  S
Zr289       O292   2.365   1_454  S
Zr289       O294   2.365   1_455  S
Zr289       O295   2.369   1_554  S
Zr290       O291   2.368   1_554  S
Zr290       O293   2.366   1_654  S
Zr290       O296   2.363       .  S
O291        H299   0.966       .  S
O294        H298   0.966       .  S
O295        H300   0.966       .  S
C313        C423   1.505       .  S
C313        C314   1.412       .  A
C313        C318   1.403   1_554  A
C314        C315   1.403       .  A
C314        H319   1.081       .  S
C315        C316   1.416   1_554  A
C316        C317   1.421       .  A
C316        H320   1.082       .  S
C317        C380   1.489       .  S
C317        C318   1.399       .  A
C318        H321   1.079       .  S
C322        C400   1.478   1_554  S
C322        C323   1.416   1_554  A
C322        C327   1.395   1_554  A
C323        C324   1.411       .  A
C323        H328   1.083   1_556  S
C324        C325   1.405       .  A
C325        C326   1.404       .  A
C325        H329   1.084       .  S
C326        C370   1.486       .  S
C326        C327   1.393       .  A
C327        H330   1.082   1_556  S
C331        C360   1.477       .  S
C331        C332   1.404       .  A
C331        C336   1.399       .  A
C332        C333   1.400       .  A
C332        H337   1.085       .  S
C333        C334   1.408   1_556  A
C334        C335   1.424       .  A
C334        H338   1.084       .  S
C335        C393   1.501       .  S
C335        C336   1.403   1_554  A
C336        H339   1.080       .  S
C340        C353   1.475       .  S
C340        C341   1.417       .  A
C340        C345   1.388       .  A
C341        C342   1.421       .  A
C341        H346   1.083       .  S
C342        C343   1.416       .  A
C343        C344   1.418       .  A
C343        H347   1.083       .  S
C344        C413   1.481       .  S
C344        C345   1.381       .  A
C345        H348   1.084       .  S
C349        C350   1.401       .  A
C349        C354   1.408       .  A
C349       Br356   1.919       .  S
C350        C351   1.399   1_556  A
C351        C352   1.403       .  A
C351       Br358   1.913       .  S
C352        C353   1.410   1_554  A
C352       Br357   1.927       .  S
C353        C354   1.414       .  A
C354       Br355   1.925       .  S
C359        C360   1.410       .  A
C359        C364   1.415       .  A
C359       Br366   1.928       .  S
C360        C361   1.406   1_556  A
C361        C362   1.390       .  A
C361       Br368   1.943       .  S
C362        C363   1.421   1_554  A
C362       Br367   1.934       .  S
C363        C364   1.417       .  A
C364       Br365   1.929       .  S
C369        C370   1.417       .  A
C369        C374   1.413       .  A
C369       Br376   1.933       .  S
C370        C371   1.407   1_556  A
C371        C372   1.394       .  A
C371       Br378   1.944       .  S
C372        C373   1.429   1_554  A
C372       Br377   1.940       .  S
C373        C374   1.415       .  A
C374       Br375   1.931       .  S
C379        C380   1.411   1_554  A
C379        C384   1.405       .  A
C379       Br386   1.930       .  S
C380        C381   1.414       .  A
C381        C382   1.419       .  A
C381       Br388   1.924       .  S
C382        C383   1.412       .  A
C382       Br387   1.925       .  S
C383        C384   1.402   1_556  A
C384       Br385   1.914       .  S
C389        C390   1.419       .  A
C389        C394   1.392   1_554  A
C389       Br396   1.907   1_554  S
C390        C391   1.413       .  A
C391        C392   1.428       .  A
C391       Br398   1.925       .  S
C392        C393   1.426       .  A
C392       Br397   1.927       .  S
C393        C394   1.401   1_554  A
C394       Br395   1.945       .  S
C399        C400   1.410       .  A
C399        C404   1.399       .  A
C399       Br406   1.933       .  S
C400        C401   1.417   1_556  A
C401        C402   1.411       .  A
C401       Br408   1.928       .  S
C402        C403   1.402   1_554  A
C402       Br407   1.926       .  S
C403        C404   1.402       .  A
C404       Br405   1.915       .  S
C409        C410   1.421   1_554  A
C409        C414   1.429       .  A
C409       Br416   1.924       .  S
C410        C411   1.405       .  A
C411        C412   1.378       .  A
C411       Br418   1.924   1_556  S
C412        C413   1.384       .  A
C412       Br417   1.918       .  S
C413        C414   1.428   1_556  A
C414       Br415   1.926       .  S
C419        C420   1.423       .  A
C419        C424   1.388       .  A
C419       Br426   1.934       .  S
C420        C421   1.416       .  A
C421        C422   1.421       .  A
C421       Br428   1.930       .  S
C422        C423   1.431       .  A
C422       Br427   1.934       .  S
C423        C424   1.413       .  A
C424       Br425   1.944   1_554  S
C429        C430   1.446       .  A
C429        C434   1.432       .  A
C429       Br436   1.930       .  S
C430        C431   1.405       .  A
C431        C432   1.387       .  A
C431       Br438   1.917   1_545  S
C432        C433   1.385       .  A
C432       Br437   1.918       .  S
C433        C434   1.413       .  A
C434       Br435   1.922   1_545  S
C439        C440   1.421       .  A
C439        C444   1.392       .  A
C439       Br446   1.922       .  S
C440        C441   1.414   1_455  A
C441        C442   1.413       .  A
C441       Br448   1.930       .  S
C442        C443   1.413       .  A
C442       Br447   1.928       .  S
C443        C444   1.401   1_655  A
C444       Br445   1.941       .  S
C449        C450   1.408       .  A
C449        C454   1.404       .  A
C449       Br456   1.933       .  S
C450        C451   1.420   1_545  A
C451        C452   1.415       .  A
C451       Br458   1.930       .  S
C452        C453   1.408   1_565  A
C452       Br457   1.929       .  S
C453        C454   1.408       .  A
C454       Br455   1.920       .  S
C459        C460   1.409       .  A
C459        C464   1.405       .  A
C459       Br466   1.930       .  S
C460        C461   1.414   1_455  A
C461        C462   1.407       .  A
C461       Br468   1.930       .  S
C462        C463   1.401   1_655  A
C462       Br467   1.919       .  S
C463        C464   1.405       .  A
C464       Br465   1.920       .  S
C469        C470   1.411   1_565  A
C469        C474   1.400       .  A
C469       Br476   1.935       .  S
C470        C471   1.412       .  A
C471        C472   1.412       .  A
C471       Br478   1.927       .  S
C472        C473   1.410   1_545  A
C472       Br477   1.927       .  S
C473        C474   1.403       .  A
C474       Br475   1.916       .  S
C479        C480   1.401   1_655  A
C479        C484   1.407       .  A
C479       Br486   1.920       .  S
C480        C481   1.408       .  A
C481        C482   1.407       .  A
C481       Br488   1.927       .  S
C482        C483   1.409       .  A
C482       Br487   1.927       .  S
C483        C484   1.413   1_455  A
C484       Br485   1.928       .  S
C489        C490   1.409   1_545  A
C489        C494   1.399       .  A
C489       Br496   1.934       .  S
C490        C491   1.406       .  A
C491        C492   1.405       .  A
C491       Br498   1.927       .  S
C492        C493   1.407       .  A
C492       Br497   1.927       .  S
C493        C494   1.405   1_565  A
C494       Br495   1.930       .  S
C499        C500   1.401       .  A
C499        C504   1.402       .  A
C499       Br506   1.916       .  S
C500        C501   1.411   1_545  A
C501        C502   1.414       .  A
C501       Br508   1.927       .  S
C502        C503   1.412       .  A
C502       Br507   1.927       .  S
C503        C504   1.411   1_565  A
C504       Br505   1.933       .  S
C509        C510   1.401   1_655  A
C509        C514   1.407       .  A
C509       Br516   1.925       .  S
C510        C511   1.403       .  A
C511        C512   1.400       .  A
C511       Br518   1.911       .  S
C512        C513   1.406   1_455  A
C512       Br517   1.932       .  S
C513        C514   1.414       .  A
C514       Br515   1.927       .  S
C519        C520   1.419   1_545  A
C519        C524   1.412       .  A
C519       Br526   1.929       .  S
C520        C521   1.411       .  A
C521        C522   1.401       .  A
C521       Br528   1.934       .  S
C522        C523   1.402       .  A
C522       Br527   1.913       .  S
C523        C524   1.405   1_565  A
C524       Br525   1.929       .  S
C529        C530   1.417       .  A
C529        C534   1.417       .  A
C529       Br536   1.931       .  S
C530        C531   1.400   1_455  A
C531        C532   1.392       .  A
C531       Br538   1.940       .  S
C532        C533   1.423       .  A
C532       Br537   1.919       .  S
C533        C534   1.416   1_655  A
C534       Br535   1.929       .  S
C539        C540   1.403   1_545  A
C539        C544   1.375   1_545  A
C539       Br546   1.937       .  S
C540        C541   1.436       .  A
C541        C542   1.427       .  A
C541       Br548   1.931       .  S
C542        C543   1.411       .  A
C542       Br547   1.925       .  S
C543        C544   1.417       .  A
C544       Br545   1.923       .  S
C549        C550   1.410       .  A
C549        C554   1.408       .  A
C549       Br556   1.930       .  S
C550        C551   1.411   1_655  A
C551        C552   1.409       .  A
C551       Br558   1.930       .  S
C552        C553   1.409   1_455  A
C552       Br557   1.929       .  S
C553        C554   1.410       .  A
C554       Br555   1.929       .  S
C559        C560   1.412       .  A
C559        C564   1.426       .  A
C559       Br566   1.925       .  S
C560        C561   1.417       .  A
C561        C562   1.373   1_545  A
C561       Br568   1.918       .  S
C562        C563   1.399   1_565  A
C562       Br567   1.938       .  S
C563        C564   1.433       .  A
C564       Br565   1.930       .  S
C569        C570   1.413   1_455  A
C569        C574   1.407       .  A
C569       Br576   1.927       .  S
C570        C571   1.411       .  A
C571        C572   1.409       .  A
C571       Br578   1.925       .  S
C572        C573   1.407       .  A
C572       Br577   1.927       .  S
C573        C574   1.400   1_655  A
C574       Br575   1.920       .  S
C579        C580   1.409   1_655  A
C579        C584   1.405       .  A
C579       Br586   1.930       .  S
C580        C581   1.409       .  A
C581        C582   1.407       .  A
C581       Br588   1.931       .  S
C582        C583   1.409       .  A
C582       Br587   1.929       .  S
C583        C584   1.408   1_455  A
C584       Br585   1.930       .  S
