geometry optimzed in LAMMPS
_audit_creation_date              2020-11-30 
_audit_creation_method            'lammps2cif' 
_symmetry_space_group_name_H-M    'P1' 
_symmetry_Int_Tables_number       1 
_symmetry_cell_setting            triclinic 
loop_ 
_symmetry_equiv_pos_as_xyz 
  x,y,z 
_cell_length_a                    41.14736423835866 
_cell_length_b                    41.183812861009 
_cell_length_c                    34.57941426107851 
_cell_angle_alpha                 89.98105796377381 
_cell_angle_beta                  89.94826028673567 
_cell_angle_gamma                 120.02024516793074 
loop_ 
_atom_site_label 
_atom_site_type_symbol 
_atom_site_fract_x 
_atom_site_fract_y 
_atom_site_fract_z 
_atom_site_charge 
C1          C  0.49324309  0.71763118  0.09422186     0.03510
C2          C  0.49228325  0.71736729  0.13477027    -0.12640
C3          C  0.49767648  0.74909445  0.15600026     0.01010
C4          C  0.50237936  0.78040688  0.13459707    -0.11160
C5          C  0.50052401  0.77976907  0.09404192     0.03510
C6          C  0.49719704  0.74879192  0.07396847    -0.10580
H7          H  0.48724335  0.69192777  0.14891998     0.09100
H8          H  0.50720519  0.80579829  0.14867278     0.06630
H9          H  0.49601408  0.74815289  0.04265298     0.06480
C10         C  0.49617312  0.71889979  0.26146343     0.03510
C11         C  0.49935776  0.72087281  0.22103980    -0.12640
C12         C  0.49732433  0.74911279  0.19978631     0.01010
C13         C  0.49423911  0.77682741  0.22112209    -0.11160
C14         C  0.49376248  0.77661144  0.26176260     0.03510
C15         C  0.49438391  0.74734594  0.28167848    -0.10580
H16         H  0.50343553  0.69985304  0.20690418     0.09100
H17         H  0.49233078  0.79910093  0.20691632     0.06630
H18         H  0.49225916  0.74610629  0.31294611     0.06480
C19         C  0.21916195  0.78674980  0.26142709     0.03510
C20         C  0.21666267  0.78759319  0.22096655    -0.12640
C21         C  0.18996420  0.75611502  0.20012808     0.01010
C22         C  0.16409960  0.72424823  0.22135446    -0.11160
C23         C  0.16379956  0.72416084  0.26205150     0.03510
C24         C  0.19183044  0.75547621  0.28177672    -0.10580
H25         H  0.23622467  0.81303348  0.20603019     0.09100
H26         H  0.14441702  0.69882109  0.20657724     0.06630
H27         H  0.19280187  0.75531570  0.31299022     0.06480
C28         C  0.22253153  0.78108217  0.09462106     0.03510
C29         C  0.22254270  0.78032414  0.13534727    -0.12640
C30         C  0.18991973  0.75610227  0.15658987     0.01010
C31         C  0.15761767  0.73093767  0.13577809    -0.11160
C32         C  0.15834981  0.72804437  0.09538333     0.03510
C33         C  0.19014154  0.75452538  0.07494785    -0.10580
H34         H  0.24852995  0.79836526  0.15020154     0.09100
H35         H  0.13162679  0.71280082  0.15068719     0.06630
H36         H  0.18968125  0.75391854  0.04371425     0.06480
C37         C  0.15619869  0.44090670  0.09579047     0.03510
C38         C  0.18615891  0.44217313  0.07533339    -0.12640
C39         C  0.21631482  0.44325789  0.09508183     0.01010
C40         C  0.21658656  0.44354828  0.13570883    -0.11160
C41         C  0.18611881  0.44083953  0.15731627     0.03510
C42         C  0.15557605  0.43867330  0.13628961    -0.10580
H43         H  0.18676492  0.44390103  0.04404882     0.09100
H44         H  0.24122375  0.44621408  0.14975377     0.06630
H45         H  0.13067407  0.43506279  0.15060159     0.06480
C46         C  0.15920222  0.44555417  0.26301497     0.03510
C47         C  0.18707495  0.44241943  0.28309980    -0.12640
C48         C  0.21471538  0.43914882  0.26293288     0.01010
C49         C  0.21352180  0.43695106  0.22247862    -0.11160
C50         C  0.18645277  0.44106084  0.20112059     0.03510
C51         C  0.16019651  0.44653789  0.22238798    -0.10580
H52         H  0.18762214  0.44285189  0.31441676     0.09100
H53         H  0.23451431  0.43259949  0.20849302     0.06630
H54         H  0.14076606  0.45282026  0.20799774     0.06480
C55         C  0.76463852  0.24117752  0.26039422     0.03510
C56         C  0.76589916  0.23841262  0.22009800    -0.12640
C57         C  0.73433942  0.21208242  0.19900297     0.01010
C58         C  0.70232305  0.18632815  0.22028591    -0.11160
C59         C  0.70257027  0.18522049  0.26099568     0.03510
C60         C  0.73377847  0.21338991  0.28073912    -0.10580
H61         H  0.79172840  0.25777584  0.20573102     0.09100
H62         H  0.67649238  0.16751008  0.20575145     0.06630
H63         H  0.73382274  0.21434956  0.31199199     0.06480
C64         C  0.76191386  0.24456724  0.09404112     0.03510
C65         C  0.76157108  0.24414016  0.13448081    -0.12640
C66         C  0.73457136  0.21248938  0.15532061     0.01010
C67         C  0.70717179  0.18178858  0.13378162    -0.11160
C68         C  0.70622484  0.18274082  0.09312192     0.03510
C69         C  0.73438539  0.21402389  0.07352394    -0.10580
H70         H  0.78209321  0.26934144  0.14893312     0.09100
H71         H  0.68564149  0.15726351  0.14823506     0.06630
H72         H  0.73468389  0.21497470  0.04219764     0.06480
C73         C  0.69768221  0.52373182  0.09462034     0.03510
C74         C  0.72827721  0.52637974  0.07425580    -0.12640
C75         C  0.75989546  0.53088745  0.09416811     0.01010
C76         C  0.76146342  0.53489842  0.13458619    -0.11160
C77         C  0.73041302  0.53086157  0.15593145     0.03510
C78         C  0.69824656  0.52468237  0.13510099    -0.10580
H79         H  0.72667747  0.52330704  0.04308087     0.09100
H80         H  0.78707490  0.54057400  0.14895157     0.06630
H81         H  0.67303991  0.51996815  0.14972216     0.06480
C82         C  0.70099312  0.53182985  0.26058309     0.03510
C83         C  0.70491197  0.53714510  0.22043078    -0.12640
C84         C  0.73081879  0.53118333  0.19947950     0.01010
C85         C  0.75561993  0.52353426  0.22063513    -0.11160
C86         C  0.75545082  0.52303212  0.26135464     0.03510
C87         C  0.72762537  0.52681087  0.28098368    -0.10580
H88         H  0.68678312  0.54509598  0.20578285     0.09100
H89         H  0.77472535  0.51696614  0.20586219     0.06630
H90         H  0.72622106  0.52523563  0.31217031     0.06480
C91         C  0.41361801  0.17719305  0.26287295     0.03510
C92         C  0.41570805  0.20753832  0.28304850    -0.12640
C93         C  0.41610438  0.23728756  0.26302192     0.01010
C94         C  0.41427761  0.23620869  0.22240011    -0.11160
C95         C  0.41095116  0.20520519  0.20117746     0.03510
C96         C  0.41006962  0.17550630  0.22256099    -0.10580
H97         H  0.41789485  0.20831473  0.31429878     0.09100
H98         H  0.41703008  0.26071060  0.20807537     0.06630
H99         H  0.40713004  0.15071684  0.20869175     0.06480
C100        C  0.41831347  0.17988216  0.09542971     0.03510
C101        C  0.41640540  0.17878286  0.13600355    -0.12640
C102        C  0.41079608  0.20494143  0.15734871     0.01010
C103        C  0.40696987  0.23214559  0.13607287    -0.11160
C104        C  0.41216661  0.23556348  0.09582263     0.03510
C105        C  0.41698417  0.20882587  0.07563023    -0.10580
H106        H  0.42063959  0.15785233  0.15013468     0.09100
H107        H  0.40045055  0.25153434  0.15017710     0.06630
H108        H  0.42036415  0.21088187  0.04449439     0.06480
C109        C  0.48031233  0.58931984  0.34349942     0.42840
N110        N  0.49089867  0.55505881  0.38232734     0.01730
C111        C  0.40770262  0.36143322  0.38305560    -0.06140
H112        H  0.31379467  0.40915431  0.39999319     0.07220
C113        C  0.38372909  0.47439891  0.02618738    -0.06500
Co114      Co  0.45158717  0.47473167  0.35776141     0.74180
N115        N  0.37340311  0.43661305  0.38897763    -0.25670
Co116      Co  0.39524557  0.41786598  0.43214478     0.74070
C117        C  0.34448527  0.45392442  0.01403809     0.42940
N118        N  0.47383629  0.53710985  0.49670670     0.01350
N119        N  0.37747320  0.44111158  0.47538589     0.01450
N120        N  0.44399933  0.39926024  0.33456933    -0.46520
H121        H  0.44088556  0.53806101  0.30611611     0.07210
N122        N  0.39478349  0.45877517  0.36090912     0.01740
N123        N  0.41823084  0.39993915  0.47494682     0.01480
C124        C  0.42876618  0.36561688  0.01376418     0.43080
N125        N  0.49517083  0.55841143  0.46820919    -0.25130
C126        C  0.52827408  0.48422215  0.32990412    -0.06050
N127        N  0.49974067  0.59013825  0.37528299    -0.46240
N128        N  0.40926393  0.36483096  0.48205527    -0.46460
C129        C  0.56742919  0.50660481  0.34245871     0.42860
N130        N  0.43618762  0.41809729  0.36048317     0.01730
N131        N  0.53603481  0.51811589  0.46768215    -0.25150
N132        N  0.46716211  0.53121923  0.35678411    -0.25640
N133        N  0.51481983  0.49587691  0.49576197     0.01370
H134        H  0.59546455  0.54522585  0.45601337     0.07260
H135        H  0.46870023  0.41696775  0.05078932     0.07290
N136        N  0.41477821  0.39656841  0.38893221    -0.25690
N137        N  0.40181247  0.46477702  0.50064213    -0.25310
N138        N  0.53210140  0.51482221  0.38200415     0.01730
C139        C  0.33940329  0.44751921  0.34696711     0.43130
C140        C  0.50328448  0.59375327  0.47423830    -0.06560
N141        N  0.44218572  0.42378915  0.50031942    -0.25300
H142        H  0.39674191  0.49245054  0.05078320     0.07280
N143        N  0.37550658  0.46607767  0.33506852    -0.46530
H144        H  0.52091631  0.61741941  0.45591753     0.07260
C145        C  0.57017100  0.50654791  0.00888329     0.42960
C146        C  0.45865480  0.55017342  0.33113436    -0.06050
Co147      Co  0.51405424  0.53714406  0.42498548     0.73820
N148        N  0.46667104  0.55634424  0.02275049    -0.46240
C149        C  0.42741634  0.36352258  0.34732679     0.43230
N150        N  0.56745672  0.52487078  0.37477641    -0.46230
Co151      Co  0.45821443  0.48037192  0.99917685     0.73890
C152        C  0.45064834  0.40480136  0.02597334    -0.06560
C153        C  0.33779761  0.42775932  0.38250537    -0.06120
N154        N  0.50856785  0.49124956  0.35615549    -0.25650
N155        N  0.34270661  0.43359267  0.48251537    -0.46410
H156        H  0.39009992  0.33735793  0.40092159     0.07240
C157        C  0.57157622  0.52661460  0.47363626    -0.06540
Cl158      Cl  0.45475707  0.47750470  0.42849905    -0.49540
C159        C  0.48442511  0.59234377  0.01042896     0.42990
H160        H  0.51668661  0.46700293  0.30443561     0.07200
N161        N  0.53419483  0.48833865  0.02125567    -0.46250
C162        C  0.04377528  0.59852575  0.01301108     0.42840
N163        N  0.99937684  0.56394585  0.47377609     0.01730
C164        C  0.89101003  0.37007037  0.47349500    -0.06140
H165        H  0.03075048  0.41875645  0.45392276     0.07220
C166        C  0.02714221  0.48247164  0.32974723    -0.06500
Co167      Co  0.95898120  0.48343919  0.99824857     0.74180
N168        N  0.99937833  0.44608834  0.46672098    -0.25670
Co169      Co  0.95886595  0.42720798  0.42399388     0.74070
C170        C  0.04564491  0.46237808  0.34350608     0.42940
N171        N  0.99881482  0.54566619  0.35902001     0.01350
N172        N  0.99981869  0.45041169  0.38117032     0.01450
N173        N  0.89115800  0.40776656  0.02128703    -0.46520
H174        H  0.03252308  0.54718469  0.05005131     0.07210
N175        N  0.99994303  0.46746564  0.49536070     0.01740
N176        N  0.91802041  0.40891205  0.38134198     0.01480
C177        C  0.87374678  0.37373278  0.34244070     0.43080
N178        N  0.99911229  0.56703730  0.38764266    -0.25130
C179        C  0.89118788  0.49081546  0.02597952    -0.06050
N180        N  0.02519014  0.59917171  0.48109702    -0.46240
N181        N  0.89237693  0.37361715  0.37445144    -0.46460
C182        C  0.87318837  0.51217934  0.01403336     0.42860
N183        N  0.91782059  0.42686338  0.49541237     0.01730
N184        N  0.91685405  0.52554639  0.38808217    -0.25150
N185        N  0.99957991  0.54014750  0.49922799    -0.25640
N186        N  0.91711099  0.50440798  0.35949434     0.01370
H187        H  0.88141151  0.54911419  0.40069043     0.07260
H188        H  0.88478164  0.42447232  0.30445619     0.07290
N189        N  0.91824096  0.40547969  0.46720434    -0.25690
N190        N  0.99930566  0.47363480  0.35516212    -0.25310
N191        N  0.91761532  0.52274335  0.47428540     0.01730
C192        C  0.04329299  0.45467194  0.00918013     0.43130
C193        C  0.02771653  0.60203299  0.38213686    -0.06560
N194        N  0.91778850  0.43236481  0.35551970    -0.25300
H195        H  0.03321178  0.50019083  0.30457449     0.07280
N196        N  0.02574828  0.47317566  0.02163522    -0.46530
H197        H  0.03466763  0.62598607  0.40034209     0.07260
C198        C  0.87069190  0.51232924  0.34678469     0.42960
C199        C  0.02675732  0.55928981  0.02508816    -0.06050
Co200      Co  0.95821979  0.54554777  0.43093824     0.73820
N201        N  0.02560763  0.56443178  0.33321828    -0.46240
C202        C  0.87289819  0.37187905  0.00895868     0.43230
N203        N  0.89130475  0.53141967  0.48185064    -0.46230
Co204      Co  0.95820969  0.48909235  0.35646102     0.73890
C205        C  0.89061575  0.41280126  0.32973782    -0.06560
C206        C  0.02585236  0.43690122  0.47256703    -0.06120
N207        N  0.91823043  0.49925840  0.49980185    -0.25650
N208        N  0.02697366  0.44264227  0.37505405    -0.46410
H209        H  0.88526825  0.34603658  0.45596417     0.07240
C210        C  0.88820866  0.53189403  0.38262779    -0.06540
Cl211      Cl  0.95858382  0.48635664  0.42744406    -0.49540
C212        C  0.04516073  0.59998569  0.34622941     0.42990
H213        H  0.88629154  0.47308413  0.05083592     0.07200
N214        N  0.89033675  0.49640601  0.33373404    -0.46250
C215        C  0.48832823  0.89708027  0.01485291     0.42840
N216        N  0.50026868  0.94234248  0.47582953     0.01730
C217        C  0.41593089  0.05156544  0.47374384    -0.06140
H218        H  0.32414935  0.90575279  0.45587076     0.07220
C219        C  0.39142868  0.91559131  0.33040545    -0.06500
Co220      Co  0.46110397  0.98378815  0.99984226     0.74180
N221        N  0.38302758  0.94176798  0.46862942    -0.25670
Co222      Co  0.40413330  0.98253074  0.42540802     0.74070
C223        C  0.35198318  0.89832123  0.34202550     0.42940
N224        N  0.48245433  0.94185571  0.36122919     0.01350
N225        N  0.38620525  0.94174805  0.38240831     0.01450
N226        N  0.45298137  0.05134806  0.02201941    -0.46520
H227        H  0.44979035  0.91076117  0.05189408     0.07210
N228        N  0.40444829  0.94270296  0.49751116     0.01740
N229        N  0.42667491  0.02321092  0.38235179     0.01480
C230        C  0.43680618  0.06800399  0.34370584     0.43080
N231        N  0.50398780  0.94217754  0.38962539    -0.25130
C232        C  0.53737783  0.05212103  0.02609954    -0.06050
N233        N  0.50814934  0.91540641  0.48298609    -0.46240
N234        N  0.41723226  0.04898861  0.37525920    -0.46460
C235        C  0.57609958  0.06932780  0.01272824     0.42860
N236        N  0.44534091  0.02448372  0.49649022     0.01730
N237        N  0.54476344  0.02393475  0.38930429    -0.25150
N238        N  0.47680041  0.94307763  0.50133921    -0.25640
N239        N  0.52334750  0.02359157  0.36071551     0.01370
H240        H  0.60388316  0.05907694  0.40162160     0.07260
H241        H  0.47670417  0.05700179  0.30609811     0.07290
N242        N  0.42346144  0.02377018  0.46820133    -0.25690
N243        N  0.41023000  0.94216973  0.35687547    -0.25310
N244        N  0.54146542  0.02411710  0.47498665     0.01730
C245        C  0.35018328  0.89611720  0.01044514     0.43130
C246        C  0.51152241  0.91443987  0.38399937    -0.06560
N247        N  0.45077351  0.02356164  0.35688910    -0.25300
H248        H  0.40418107  0.91070686  0.30545804     0.07280
N249        N  0.38570907  0.91620052  0.02360597    -0.46530
H250        H  0.52895254  0.90848141  0.40263159     0.07260
C251        C  0.57783633  0.06952552  0.34754740     0.42960
C252        C  0.46765826  0.91566130  0.02713201    -0.06050
Co253      Co  0.52327021  0.98308078  0.43249493     0.73820
N254        N  0.47475852  0.91499439  0.33568597    -0.46240
C255        C  0.43597263  0.06997934  0.00902789     0.43230
N256        N  0.57670791  0.05034454  0.48133515    -0.46230
Co257      Co  0.46679695  0.98279681  0.35815637     0.73890
C258        C  0.45903064  0.05110271  0.33129069    -0.06560
C259        C  0.34813448  0.91298640  0.47415415    -0.06120
N260        N  0.51790161  0.02444480  0.50072633    -0.25650
N261        N  0.35105704  0.91615383  0.37446971    -0.46410
H262        H  0.39787335  0.05741494  0.45592689     0.07240
C263        C  0.57984815  0.05230418  0.38359861    -0.06540
Cl264      Cl  0.46382556  0.98305562  0.42896760    -0.49540
C265        C  0.49215468  0.89641855  0.34804674     0.42990
H266        H  0.52601516  0.05854705  0.05126977     0.07200
N267        N  0.54220291  0.05004725  0.33464708    -0.46250
C268        C  0.39735365  0.26440519  0.03946763    -0.20920
C269        C  0.41521261  0.26861255  0.07522921    -0.08960
C270        C  0.43777103  0.30493124  0.09027105     0.29890
C271        C  0.44208744  0.33615991  0.07005750    -0.20920
C272        C  0.42421670  0.33206205  0.03436159    -0.08980
C273        C  0.40175311  0.29574959  0.01914306     0.29900
F274        F  0.38421103  0.29040110  0.48455893    -0.19500
H275        H  0.37990103  0.23675935  0.02724755     0.18270
H276        H  0.45970546  0.36359512  0.08252104     0.18270
F277        F  0.45683297  0.31048102  0.12391607    -0.19490
C278        C  0.40417168  0.08646583  0.05986998    -0.20920
C279        C  0.43205634  0.09804593  0.03142581    -0.08960
C280        C  0.45557861  0.13637939  0.02412911     0.29890
C281        C  0.45114451  0.16292056  0.04514664    -0.20920
C282        C  0.42317187  0.15152031  0.07371469    -0.08980
C283        C  0.39962763  0.11293668  0.08089320     0.29900
F284        F  0.37153017  0.10082102  0.10734974    -0.19500
H285        H  0.38565579  0.05686462  0.06546212     0.18270
H286        H  0.46973683  0.19244403  0.03929664     0.18270
F287        F  0.48282500  0.14806779  0.99675856    -0.19490
C288        C  0.39520555  0.28391297  0.27600066    -0.20920
C289        C  0.41956851  0.27016982  0.28441369    -0.08960
C290        C  0.44702796  0.28803259  0.31330128     0.29890
C291        C  0.44952715  0.31857857  0.33362942    -0.20920
C292        C  0.42499062  0.33191724  0.32529287    -0.08980
C293        C  0.39783466  0.31452992  0.29631357     0.29900
F294        F  0.37359384  0.32688095  0.28807413    -0.19500
H295        H  0.37376792  0.27055321  0.25403975     0.18270
H296        H  0.47072327  0.33195068  0.35581683     0.18270
F297        F  0.47200933  0.27655106  0.32123922    -0.19490
C298        C  0.45268751  0.14870409  0.27864814    -0.20920
C299        C  0.41897216  0.14893418  0.28352235    -0.08960
C300        C  0.39137620  0.12289795  0.30850219     0.29890
C301        C  0.39755492  0.09684408  0.32829679    -0.20920
C302        C  0.43125375  0.09636273  0.32328697    -0.08980
C303        C  0.45895877  0.12277524  0.29844970     0.29900
F304        F  0.49249811  0.12435923  0.29412130    -0.19500
H305        H  0.47439122  0.16904439  0.25980464     0.18270
H306        H  0.37573735  0.07667524  0.34714405     0.18270
F307        F  0.35831688  0.12229104  0.31314712    -0.19490
C308        C  0.59924701  0.50078538  0.28361825    -0.20920
C309        C  0.60177635  0.51385502  0.32152151    -0.08960
C310        C  0.63742591  0.53449202  0.33878991     0.29890
C311        C  0.66970195  0.54163895  0.31839127    -0.20920
C312        C  0.66716231  0.52795165  0.28062326    -0.08980
C313        C  0.63137299  0.50749744  0.26339143     0.29900
F314        F  0.62696173  0.49232506  0.22760011    -0.19500
H315        H  0.57230948  0.48494068  0.26950402     0.18270
H316        H  0.69670675  0.55764375  0.33239846     0.18270
F317        F  0.64119660  0.54721160  0.37565455    -0.19490
C318        C  0.82168034  0.53624178  0.26918685    -0.20920
C319        C  0.78449576  0.51874929  0.28309813    -0.08960
C320        C  0.77606325  0.49822460  0.31803204     0.29890
C321        C  0.80442712  0.49677683  0.33894543    -0.20920
C322        C  0.84121348  0.51430681  0.32478780    -0.08980
C323        C  0.84962779  0.53357851  0.28949079     0.29900
F324        F  0.88514111  0.55073709  0.27522813    -0.19500
H325        H  0.82938979  0.55259909  0.24279787     0.18270
H326        H  0.79751449  0.48124449  0.36586676     0.18270
F327        F  0.74035245  0.47850979  0.33152560    -0.19490
C328        C  0.63193487  0.48406518  0.07123445    -0.20920
C329        C  0.66466360  0.51926485  0.07343237    -0.08960
C330        C  0.66596977  0.55020894  0.05493126     0.29890
C331        C  0.63513474  0.54576975  0.03372512    -0.20920
C332        C  0.60239129  0.51056356  0.03127418    -0.08980
C333        C  0.60084551  0.47969049  0.05036129     0.29900
F334        F  0.56983480  0.44517649  0.04770035    -0.19500
H335        H  0.63069270  0.45998038  0.08534581     0.18270
H336        H  0.63663203  0.56999305  0.01966565     0.18270
F337        F  0.69692402  0.58474738  0.05781987    -0.19490
C338        C  0.83241804  0.54104154  0.01958258    -0.20920
C339        C  0.84392902  0.51659986  0.03455811    -0.08960
C340        C  0.82765203  0.49739465  0.06930877     0.29890
C341        C  0.80093694  0.50284531  0.08846173    -0.20920
C342        C  0.78953856  0.52726328  0.07358951    -0.08980
C343        C  0.80544025  0.54632873  0.03879904     0.29900
F344        F  0.79550749  0.57058745  0.02380717    -0.19500
H345        H  0.84444061  0.55628295  0.49298262     0.18270
H346        H  0.78853891  0.48728885  0.11483413     0.18270
F347        F  0.83699121  0.47305387  0.08506046    -0.19490
C348        C  0.62550324  0.08746147  0.06255808    -0.20920
C349        C  0.60973108  0.09782816  0.03253036    -0.08960
C350        C  0.62661695  0.13537295  0.02105673     0.29890
C351        C  0.65824949  0.16261886  0.04053300    -0.20920
C352        C  0.67406349  0.15272365  0.07126788    -0.08980
C353        C  0.65768411  0.11455902  0.08161939     0.29900
F354        F  0.67302173  0.10326060  0.10955153    -0.19500
H355        H  0.61298968  0.05829964  0.07103402     0.18270
H356        H  0.66982643  0.19165871  0.03207562     0.18270
F357        F  0.61212846  0.14571945  0.49141249    -0.19490
C358        C  0.80935784  0.33564560  0.03813780    -0.20920
C359        C  0.84495851  0.34000623  0.03170742    -0.08960
C360        C  0.85343236  0.31332135  0.04643163     0.29890
C361        C  0.82640757  0.28249963  0.06730951    -0.20920
C362        C  0.79053970  0.27770438  0.07304418    -0.08980
C363        C  0.78206063  0.30438168  0.05832595     0.29900
F364        F  0.74738974  0.30002816  0.06343462    -0.19500
H365        H  0.80251511  0.35602700  0.02681282     0.18270
H366        H  0.83325212  0.26212147  0.07864785     0.18270
F367        F  0.88797391  0.31741141  0.04104443    -0.19490
C368        C  0.65938258  0.16349319  0.31887921    -0.20920
C369        C  0.66987383  0.15537376  0.28289349    -0.08960
C370        C  0.64941766  0.11824497  0.26876575     0.29890
C371        C  0.61894588  0.09067124  0.28962830    -0.20920
C372        C  0.60927115  0.09901508  0.32556906    -0.08980
C373        C  0.62989799  0.13542871  0.34036948     0.29900
F374        F  0.62097582  0.14401159  0.37523706    -0.19500
H375        H  0.67376730  0.19165212  0.33048858     0.18270
H376        H  0.60351388  0.06241173  0.27823615     0.18270
F377        F  0.65957597  0.10802162  0.23560396    -0.19490
C378        C  0.80767543  0.27162574  0.31694143    -0.20920
C379        C  0.79403617  0.27486696  0.28077503    -0.08960
C380        C  0.80668128  0.31093629  0.26535366     0.29890
C381        C  0.83240276  0.34278145  0.28560499    -0.20920
C382        C  0.84596700  0.33960184  0.32176217    -0.08980
C383        C  0.83326698  0.30359641  0.33737252     0.29900
F384        F  0.84522392  0.29912711  0.37249418    -0.19500
H385        H  0.79844082  0.24427788  0.32950436     0.18270
H386        H  0.84138532  0.36996895  0.27286577     0.18270
F387        F  0.79309181  0.31566313  0.23134499    -0.19490
C388        C  0.24547420  0.40803842  0.29673137    -0.20920
C389        C  0.24662402  0.44092440  0.28409967    -0.08960
C390        C  0.27845546  0.47586697  0.29182743     0.29890
C391        C  0.30894675  0.47781844  0.31174314    -0.20920
C392        C  0.30760435  0.44501040  0.32501644    -0.08980
C393        C  0.27569343  0.41001613  0.31733336     0.29900
F394        F  0.27422922  0.37778106  0.32878048    -0.19500
H395        H  0.22115098  0.38093954  0.29072004     0.18270
H396        H  0.33330205  0.50496892  0.31752884     0.18270
F397        F  0.27982704  0.50804037  0.28028563    -0.19490
C398        C  0.06497991  0.43528590  0.29047848    -0.20920
C399        C  0.07449816  0.45791625  0.32342517    -0.08960
C400        C  0.11139515  0.47563412  0.33731341     0.29890
C401        C  0.13885669  0.47158284  0.31763540    -0.20920
C402        C  0.12967162  0.44912991  0.28425607    -0.08980
C403        C  0.09212291  0.43042467  0.27125841     0.29900
F404        F  0.08137529  0.40669586  0.24060182    -0.19500
H405        H  0.03632634  0.42091435  0.27999627     0.18270
H406        H  0.16743722  0.48650172  0.32821249     0.18270
F407        F  0.12094596  0.49737716  0.36947298    -0.19490
C408        C  0.28511870  0.47467902  0.08281435    -0.20920
C409        C  0.24876381  0.44627795  0.07335647    -0.08960
C410        C  0.24390639  0.42112740  0.04341155     0.29890
C411        C  0.27513485  0.42413670  0.02388566    -0.20920
C412        C  0.31167160  0.45222843  0.03382351    -0.08980
C413        C  0.31625571  0.47788186  0.06324860     0.29900
F414        F  0.35059226  0.50657272  0.07299660    -0.19500
H415        H  0.28940490  0.49477004  0.10526704     0.18270
H416        H  0.27072603  0.40404667  0.50139429     0.18270
F417        F  0.20911316  0.39296853  0.03387194    -0.19490
C418        C  0.10818016  0.41953881  0.04341411    -0.20920
C419        C  0.12618988  0.44339976  0.07472843    -0.08960
C420        C  0.11640996  0.47052928  0.08474414     0.29890
C421        C  0.08936034  0.47385215  0.06336222    -0.20920
C422        C  0.07156279  0.45026126  0.03164685    -0.08980
C423        C  0.08098395  0.42261684  0.02219026     0.29900
F424        F  0.06369450  0.39790913  0.49303040    -0.19500
H425        H  0.11507929  0.39823542  0.03550466     0.18270
H426        H  0.08271617  0.49531145  0.07133023     0.18270
F427        F  0.13397216  0.49471385  0.11433130    -0.19490
C428        C  0.11452623  0.69969064  0.03867014    -0.20920
C429        C  0.12726503  0.69542055  0.07501550    -0.08960
C430        C  0.11195702  0.65905157  0.09065893     0.29890
C431        C  0.08485952  0.62800619  0.07040470    -0.20830
C432        C  0.07241369  0.63213419  0.03395109    -0.08980
C433        C  0.08744566  0.66843218  0.01824196     0.29900
F434        F  0.07651721  0.67379540  0.48293060    -0.19500
H435        H  0.12566888  0.72726441  0.02591837     0.18270
H436        H  0.07400078  0.60061045  0.08338978     0.18270
F437        F  0.12431477  0.65307079  0.12485106    -0.19490
C438        C  0.29752242  0.83054319  0.01659565    -0.20920
C439        C  0.31862609  0.86650623  0.03233121    -0.08960
C440        C  0.30899484  0.87415041  0.06870207     0.29890
C441        C  0.27778170  0.84638137  0.08850390    -0.20920
C442        C  0.25627860  0.80996812  0.07308149    -0.08980
C443        C  0.26716721  0.80220692  0.03702869     0.29900
F444        F  0.24945088  0.76712907  0.02187747    -0.19500
H445        H  0.30508857  0.82420092  0.48874203     0.18270
H446        H  0.27011393  0.85372769  0.11571938     0.18270
F447        F  0.32896745  0.90889519  0.08442847    -0.19490
C448        C  0.09666028  0.67330708  0.26963170    -0.20920
C449        C  0.13377863  0.69148068  0.28365560    -0.08960
C450        C  0.14127928  0.67848583  0.31846872     0.29890
C451        C  0.11212131  0.64905212  0.33906715    -0.20920
C452        C  0.07541490  0.63122103  0.32474474    -0.08980
C453        C  0.06785132  0.64314953  0.28967631     0.29900
F454        F  0.03240159  0.62622799  0.27534736    -0.19500
H455        H  0.08973378  0.68278160  0.24332295     0.18270
H456        H  0.11831951  0.63959764  0.36584796     0.18270
F457        F  0.17680940  0.69323515  0.33209038    -0.19490
C458        C  0.28238265  0.85718796  0.33732506    -0.20920
C459        C  0.31810165  0.87035836  0.32085041    -0.08960
C460        C  0.32056623  0.85699007  0.28411109     0.29890
C461        C  0.28822761  0.83048586  0.26509419    -0.20920
C462        C  0.25254796  0.81688877  0.28169496    -0.08980
C463        C  0.24989240  0.83088797  0.31799364     0.29900
F464        F  0.21600668  0.81977326  0.33456588    -0.19500
H465        H  0.27951149  0.86729803  0.36531022     0.18270
H466        H  0.29129636  0.81995532  0.23744154     0.18270
F467        F  0.35395512  0.86920997  0.26609922    -0.19490
C468        C  0.46264356  0.61833071  0.29020122    -0.20920
C469        C  0.48446410  0.62279696  0.32310547    -0.08960
C470        C  0.51040427  0.65934909  0.33567108     0.29890
C471        C  0.51432667  0.69055336  0.31545801    -0.20920
C472        C  0.49268410  0.68591281  0.28237560    -0.08980
C473        C  0.46663382  0.64944816  0.27002338     0.29900
F474        F  0.44416411  0.64385066  0.23905171    -0.19500
H475        H  0.44216521  0.59071966  0.27999944     0.18270
H476        H  0.53452358  0.71841542  0.32546602     0.18270
F477        F  0.53218433  0.66508945  0.36726062    -0.19490
C478        C  0.51861876  0.82485625  0.31395974    -0.20920
C479        C  0.49298707  0.80716118  0.28373206    -0.08960
C480        C  0.46711393  0.81893329  0.27493800     0.29890
C481        C  0.46708471  0.84787873  0.29609118    -0.20920
C482        C  0.49270037  0.86558758  0.32643613    -0.08980
C483        C  0.51868716  0.85381168  0.33506117     0.29900
F484        F  0.54490551  0.87065333  0.36307941    -0.19500
H485        H  0.53912088  0.81656488  0.32089133     0.18270
H486        H  0.44670915  0.85624639  0.28887500     0.18270
F487        F  0.44122352  0.80184036  0.24660497    -0.19490
C488        C  0.52040429  0.69042739  0.04930800    -0.20920
C489        C  0.49049265  0.68530950  0.07288059    -0.08960
C490        C  0.45874776  0.64939133  0.07634891     0.29890
C491        C  0.45703272  0.61908970  0.05619387    -0.20920
C492        C  0.48684033  0.62429085  0.03223212    -0.08980
C493        C  0.51882026  0.66022942  0.02931712     0.29900
F494        F  0.54916673  0.66606584  0.00833976    -0.19500
H495        H  0.54532852  0.71783710  0.04691489     0.18270
H496        H  0.43217468  0.59166903  0.05881878     0.18270
F497        F  0.42915081  0.64387499  0.09848768    -0.19490
C498        C  0.47174898  0.81976904  0.08567730    -0.20920
C499        C  0.49811122  0.80992507  0.07326122    -0.08960
C500        C  0.52059323  0.82814241  0.04088920     0.29890
C501        C  0.51701287  0.85623971  0.02186663    -0.20920
C502        C  0.49084582  0.86644188  0.03462963    -0.08980
C503        C  0.46787643  0.84744674  0.06661586     0.29900
F504        F  0.44115343  0.85485073  0.07950674    -0.19500
H505        H  0.45355379  0.80545894  0.11003163     0.18270
H506        H  0.53500393  0.87025739  0.49731895     0.18270
F507        F  0.54655547  0.81944441  0.02826275    -0.19490
C508        C  0.49324307  0.71763118  0.59422186     0.03510
C509        C  0.49228323  0.71736728  0.63477027    -0.12640
C510        C  0.49767646  0.74909444  0.65600026     0.01010
C511        C  0.50237934  0.78040687  0.63459708    -0.11160
C512        C  0.50052399  0.77976906  0.59404192     0.03510
C513        C  0.49719702  0.74879191  0.57396847    -0.10580
H514        H  0.48724333  0.69192776  0.64891998     0.09100
H515        H  0.50720518  0.80579828  0.64867279     0.06630
H516        H  0.49601406  0.74815289  0.54265298     0.06480
C517        C  0.49617311  0.71889979  0.76146343     0.03510
C518        C  0.49935774  0.72087281  0.72103980    -0.12640
C519        C  0.49732431  0.74911279  0.69978631     0.01010
C520        C  0.49423909  0.77682740  0.72112209    -0.11160
C521        C  0.49376247  0.77661143  0.76176261     0.03510
C522        C  0.49438390  0.74734593  0.78167848    -0.10580
H523        H  0.50343552  0.69985304  0.70690418     0.09100
H524        H  0.49233075  0.79910092  0.70691632     0.06630
H525        H  0.49225915  0.74610629  0.81294612     0.06480
C526        C  0.21916195  0.78674980  0.76142708     0.03510
C527        C  0.21666267  0.78759320  0.72096655    -0.12640
C528        C  0.18996420  0.75611501  0.70012808     0.01010
C529        C  0.16409960  0.72424823  0.72135446    -0.11160
C530        C  0.16379956  0.72416084  0.76205150     0.03510
C531        C  0.19183044  0.75547622  0.78177672    -0.10580
H532        H  0.23622467  0.81303348  0.70603018     0.09100
H533        H  0.14441702  0.69882108  0.70657724     0.06630
H534        H  0.19280187  0.75531572  0.81299022     0.06480
C535        C  0.22253153  0.78108217  0.59462106     0.03510
C536        C  0.22254270  0.78032414  0.63534727    -0.12640
C537        C  0.18991973  0.75610226  0.65658986     0.01010
C538        C  0.15761768  0.73093767  0.63577809    -0.11160
C539        C  0.15834981  0.72804437  0.59538333     0.03510
C540        C  0.19014154  0.75452537  0.57494785    -0.10580
H541        H  0.24852996  0.79836526  0.65020154     0.09100
H542        H  0.13162680  0.71280081  0.65068719     0.06630
H543        H  0.18968125  0.75391853  0.54371425     0.06480
C544        C  0.15619868  0.44090669  0.59579047     0.03510
C545        C  0.18615891  0.44217311  0.57533339    -0.12640
C546        C  0.21631482  0.44325788  0.59508184     0.01010
C547        C  0.21658655  0.44354827  0.63570884    -0.11160
C548        C  0.18611881  0.44083952  0.65731628     0.03510
C549        C  0.15557605  0.43867329  0.63628961    -0.10580
H550        H  0.18676492  0.44390102  0.54404883     0.09100
H551        H  0.24122374  0.44621407  0.64975378     0.06630
H552        H  0.13067406  0.43506278  0.65060159     0.06480
C553        C  0.15920223  0.44555418  0.76301497     0.03510
C554        C  0.18707495  0.44241945  0.78309980    -0.12640
C555        C  0.21471538  0.43914883  0.76293288     0.01010
C556        C  0.21352179  0.43695105  0.72247862    -0.11160
C557        C  0.18645276  0.44106083  0.70112059     0.03510
C558        C  0.16019650  0.44653789  0.72238799    -0.10580
H559        H  0.18762215  0.44285192  0.81441676     0.09100
H560        H  0.23451429  0.43259947  0.70849302     0.06630
H561        H  0.14076605  0.45282026  0.70799775     0.06480
C562        C  0.76463852  0.24117752  0.76039422     0.03510
C563        C  0.76589916  0.23841263  0.72009800    -0.12640
C564        C  0.73433942  0.21208243  0.69900297     0.01010
C565        C  0.70232305  0.18632815  0.72028592    -0.11160
C566        C  0.70257027  0.18522050  0.76099568     0.03510
C567        C  0.73377847  0.21338991  0.78073912    -0.10580
H568        H  0.79172840  0.25777585  0.70573102     0.09100
H569        H  0.67649238  0.16751008  0.70575146     0.06630
H570        H  0.73382274  0.21434957  0.81199199     0.06480
C571        C  0.76191386  0.24456723  0.59404112     0.03510
C572        C  0.76157108  0.24414016  0.63448081    -0.12640
C573        C  0.73457136  0.21248938  0.65532061     0.01010
C574        C  0.70717179  0.18178858  0.63378162    -0.11160
C575        C  0.70622483  0.18274082  0.59312192     0.03510
C576        C  0.73438539  0.21402388  0.57352394    -0.10580
H577        H  0.78209321  0.26934144  0.64893312     0.09100
H578        H  0.68564149  0.15726351  0.64823506     0.06630
H579        H  0.73468390  0.21497469  0.54219764     0.06480
C580        C  0.69768221  0.52373182  0.59462034     0.03510
C581        C  0.72827721  0.52637973  0.57425579    -0.12640
C582        C  0.75989546  0.53088744  0.59416810     0.01010
C583        C  0.76146342  0.53489841  0.63458619    -0.11160
C584        C  0.73041302  0.53086157  0.65593144     0.03510
C585        C  0.69824656  0.52468237  0.63510099    -0.10580
H586        H  0.72667747  0.52330703  0.54308087     0.09100
H587        H  0.78707490  0.54057400  0.64895156     0.06630
H588        H  0.67303991  0.51996815  0.64972216     0.06480
C589        C  0.70099312  0.53182985  0.76058309     0.03510
C590        C  0.70491197  0.53714510  0.72043078    -0.12640
C591        C  0.73081879  0.53118333  0.69947950     0.01010
C592        C  0.75561992  0.52353425  0.72063512    -0.11160
C593        C  0.75545082  0.52303212  0.76135464     0.03510
C594        C  0.72762537  0.52681086  0.78098367    -0.10580
H595        H  0.68678313  0.54509598  0.70578284     0.09100
H596        H  0.77472535  0.51696614  0.70586219     0.06630
H597        H  0.72622105  0.52523562  0.81217031     0.06480
C598        C  0.41361800  0.17719304  0.76287295     0.03510
C599        C  0.41570805  0.20753832  0.78304850    -0.12640
C600        C  0.41610437  0.23728756  0.76302193     0.01010
C601        C  0.41427760  0.23620869  0.72240011    -0.11160
C602        C  0.41095115  0.20520518  0.70117746     0.03510
C603        C  0.41006961  0.17550630  0.72256099    -0.10580
H604        H  0.41789484  0.20831472  0.81429878     0.09100
H605        H  0.41703007  0.26071060  0.70807537     0.06630
H606        H  0.40713004  0.15071684  0.70869175     0.06480
C607        C  0.41831347  0.17988215  0.59542971     0.03510
C608        C  0.41640539  0.17878285  0.63600355    -0.12640
C609        C  0.41079608  0.20494143  0.65734871     0.01010
C610        C  0.40696987  0.23214559  0.63607287    -0.11160
C611        C  0.41216661  0.23556348  0.59582263     0.03510
C612        C  0.41698417  0.20882587  0.57563023    -0.10580
H613        H  0.42063957  0.15785231  0.65013467     0.09100
H614        H  0.40045054  0.25153434  0.65017710     0.06630
H615        H  0.42036415  0.21088187  0.54449439     0.06480
C616        C  0.48031233  0.58931984  0.84349942     0.42840
N617        N  0.49089867  0.55505881  0.88232734     0.01730
C618        C  0.40770261  0.36143322  0.88305559    -0.06140
H619        H  0.31379467  0.40915432  0.89999319     0.07220
C620        C  0.38372909  0.47439890  0.52618738    -0.06500
Co621      Co  0.45158717  0.47473167  0.85776140     0.74180
N622        N  0.37340311  0.43661305  0.88897763    -0.25670
Co623      Co  0.39524556  0.41786598  0.93214478     0.74070
C624        C  0.34448527  0.45392442  0.51403809     0.42940
N625        N  0.47383629  0.53710985  0.99670670     0.01350
N626        N  0.37747320  0.44111158  0.97538589     0.01450
N627        N  0.44399932  0.39926024  0.83456933    -0.46520
H628        H  0.44088556  0.53806101  0.80611611     0.07210
N629        N  0.39478349  0.45877518  0.86090912     0.01740
N630        N  0.41823084  0.39993915  0.97494682     0.01480
C631        C  0.42876618  0.36561688  0.51376418     0.43080
N632        N  0.49517084  0.55841143  0.96820919    -0.25130
C633        C  0.52827408  0.48422214  0.82990411    -0.06050
N634        N  0.49974067  0.59013825  0.87528299    -0.46240
N635        N  0.40926393  0.36483097  0.98205527    -0.46460
C636        C  0.56742919  0.50660481  0.84245871     0.42860
N637        N  0.43618762  0.41809729  0.86048316     0.01730
N638        N  0.53603482  0.51811589  0.96768215    -0.25150
N639        N  0.46716211  0.53121923  0.85678411    -0.25640
N640        N  0.51481983  0.49587691  0.99576197     0.01370
H641        H  0.59546456  0.54522584  0.95601336     0.07260
H642        H  0.46870022  0.41696775  0.55078932     0.07290
N643        N  0.41477821  0.39656840  0.88893220    -0.25690
N644        N  0.40181247  0.46477702  0.00064213    -0.25310
N645        N  0.53210140  0.51482220  0.88200415     0.01730
C646        C  0.33940329  0.44751922  0.84696711     0.43130
C647        C  0.50328449  0.59375327  0.97423829    -0.06560
N648        N  0.44218572  0.42378915  0.00031942    -0.25300
H649        H  0.39674191  0.49245053  0.55078320     0.07280
N650        N  0.37550659  0.46607768  0.83506852    -0.46530
H651        H  0.52091633  0.61741941  0.95591754     0.07260
C652        C  0.57017100  0.50654791  0.50888329     0.42960
C653        C  0.45865480  0.55017342  0.83113436    -0.06050
Co654      Co  0.51405424  0.53714406  0.92498548     0.73820
N655        N  0.46667104  0.55634424  0.52275049    -0.46240
C656        C  0.42741634  0.36352258  0.84732679     0.43230
N657        N  0.56745672  0.52487077  0.87477640    -0.46230
Co658      Co  0.45821443  0.48037192  0.49917685     0.73890
C659        C  0.45064834  0.40480136  0.52597335    -0.06560
C660        C  0.33779761  0.42775933  0.88250537    -0.06120
N661        N  0.50856785  0.49124955  0.85615548    -0.25650
N662        N  0.34270661  0.43359268  0.98251537    -0.46410
H663        H  0.39009991  0.33735793  0.90092159     0.07240
C664        C  0.57157622  0.52661460  0.97363626    -0.06540
Cl665      Cl  0.45475707  0.47750470  0.92849904    -0.49540
C666        C  0.48442511  0.59234377  0.51042896     0.42990
H667        H  0.51668661  0.46700293  0.80443561     0.07200
N668        N  0.53419483  0.48833865  0.52125567    -0.46250
C669        C  0.04377528  0.59852574  0.51301108     0.42840
N670        N  0.99937684  0.56394586  0.97377609     0.01730
C671        C  0.89101002  0.37007038  0.97349500    -0.06140
H672        H  0.03075048  0.41875646  0.95392276     0.07220
C673        C  0.02714222  0.48247165  0.82974724    -0.06500
Co674      Co  0.95898120  0.48343919  0.49824857     0.74180
N675        N  0.99937833  0.44608835  0.96672098    -0.25670
Co676      Co  0.95886594  0.42720799  0.92399388     0.74070
C677        C  0.04564491  0.46237809  0.84350608     0.42940
N678        N  0.99881482  0.54566619  0.85902001     0.01350
N679        N  0.99981869  0.45041170  0.88117032     0.01450
N680        N  0.89115801  0.40776656  0.52128703    -0.46520
H681        H  0.03252308  0.54718469  0.55005130     0.07210
N682        N  0.99994302  0.46746564  0.99536070     0.01740
N683        N  0.91802041  0.40891206  0.88134199     0.01480
C684        C  0.87374678  0.37373279  0.84244070     0.43080
N685        N  0.99911229  0.56703731  0.88764266    -0.25130
C686        C  0.89118788  0.49081545  0.52597952    -0.06050
N687        N  0.02519014  0.59917171  0.98109702    -0.46240
N688        N  0.89237693  0.37361715  0.87445144    -0.46460
C689        C  0.87318837  0.51217933  0.51403336     0.42860
N690        N  0.91782059  0.42686339  0.99541237     0.01730
N691        N  0.91685405  0.52554640  0.88808217    -0.25150
N692        N  0.99957990  0.54014750  0.99922799    -0.25640
N693        N  0.91711099  0.50440799  0.85949434     0.01370
H694        H  0.88141152  0.54911420  0.90069043     0.07260
H695        H  0.88478164  0.42447233  0.80445619     0.07290
N696        N  0.91824095  0.40547970  0.96720434    -0.25690
N697        N  0.99930566  0.47363481  0.85516213    -0.25310
N698        N  0.91761532  0.52274336  0.97428540     0.01730
C699        C  0.04329299  0.45467193  0.50918012     0.43130
C700        C  0.02771654  0.60203300  0.88213686    -0.06560
N701        N  0.91778850  0.43236482  0.85551970    -0.25300
H702        H  0.03321179  0.50019084  0.80457449     0.07280
N703        N  0.02574828  0.47317566  0.52163522    -0.46530
H704        H  0.03466763  0.62598608  0.90034210     0.07260
C705        C  0.87069191  0.51232925  0.84678468     0.42960
C706        C  0.02675732  0.55928981  0.52508815    -0.06050
Co707      Co  0.95821979  0.54554777  0.93093824     0.73820
N708        N  0.02560763  0.56443179  0.83321828    -0.46240
C709        C  0.87289820  0.37187905  0.50895869     0.43230
N710        N  0.89130475  0.53141968  0.98185064    -0.46230
Co711      Co  0.95820970  0.48909236  0.85646102     0.73890
C712        C  0.89061576  0.41280127  0.82973782    -0.06560
C713        C  0.02585235  0.43690123  0.97256703    -0.06120
N714        N  0.91823043  0.49925840  0.99980185    -0.25650
N715        N  0.02697366  0.44264227  0.87505406    -0.46410
H716        H  0.88526824  0.34603659  0.95596417     0.07240
C717        C  0.88820866  0.53189404  0.88262779    -0.06540
Cl718      Cl  0.95858382  0.48635665  0.92744406    -0.49540
C719        C  0.04516074  0.59998570  0.84622942     0.42990
H720        H  0.88629154  0.47308412  0.55083592     0.07200
N721        N  0.89033675  0.49640601  0.83373404    -0.46250
C722        C  0.48832823  0.89708028  0.51485291     0.42840
N723        N  0.50026868  0.94234247  0.97582953     0.01730
C724        C  0.41593090  0.05156544  0.97374384    -0.06140
H725        H  0.32414935  0.90575279  0.95587077     0.07220
C726        C  0.39142868  0.91559132  0.83040545    -0.06500
Co727      Co  0.46110397  0.98378816  0.49984226     0.74180
N728        N  0.38302758  0.94176798  0.96862942    -0.25670
Co729      Co  0.40413331  0.98253074  0.92540802     0.74070
C730        C  0.35198318  0.89832123  0.84202550     0.42940
N731        N  0.48245433  0.94185571  0.86122919     0.01350
N732        N  0.38620525  0.94174805  0.88240831     0.01450
N733        N  0.45298136  0.05134806  0.52201941    -0.46520
H734        H  0.44979035  0.91076118  0.55189408     0.07210
N735        N  0.40444830  0.94270296  0.99751116     0.01740
N736        N  0.42667491  0.02321092  0.88235180     0.01480
C737        C  0.43680619  0.06800399  0.84370584     0.43080
N738        N  0.50398780  0.94217754  0.88962539    -0.25130
C739        C  0.53737783  0.05212103  0.52609954    -0.06050
N740        N  0.50814934  0.91540640  0.98298608    -0.46240
N741        N  0.41723227  0.04898862  0.87525920    -0.46460
C742        C  0.57609958  0.06932780  0.51272823     0.42860
N743        N  0.44534091  0.02448372  0.99649022     0.01730
N744        N  0.54476344  0.02393475  0.88930430    -0.25150
N745        N  0.47680041  0.94307763  0.00133921    -0.25640
N746        N  0.52334750  0.02359158  0.86071551     0.01370
H747        H  0.60388316  0.05907694  0.90162160     0.07260
H748        H  0.47670417  0.05700179  0.80609812     0.07290
N749        N  0.42346144  0.02377018  0.96820133    -0.25690
N750        N  0.41023001  0.94216974  0.85687547    -0.25310
N751        N  0.54146542  0.02411709  0.97498665     0.01730
C752        C  0.35018328  0.89611720  0.51044514     0.43130
C753        C  0.51152241  0.91443987  0.88399937    -0.06560
N754        N  0.45077351  0.02356165  0.85688911    -0.25300
H755        H  0.40418107  0.91070687  0.80545803     0.07280
N756        N  0.38570907  0.91620052  0.52360597    -0.46530
H757        H  0.52895253  0.90848141  0.90263159     0.07260
C758        C  0.57783633  0.06952552  0.84754740     0.42960
C759        C  0.46765826  0.91566131  0.52713201    -0.06050
Co760      Co  0.52327021  0.98308077  0.93249494     0.73820
N761        N  0.47475851  0.91499439  0.83568597    -0.46240
C762        C  0.43597262  0.06997933  0.50902789     0.43230
N763        N  0.57670791  0.05034454  0.98133515    -0.46230
Co764      Co  0.46679695  0.98279681  0.85815637     0.73890
C765        C  0.45903065  0.05110271  0.83129070    -0.06560
C766        C  0.34813448  0.91298640  0.97415415    -0.06120
N767        N  0.51790161  0.02444480  0.00072633    -0.25650
N768        N  0.35105704  0.91615383  0.87446971    -0.46410
H769        H  0.39787335  0.05741495  0.95592689     0.07240
C770        C  0.57984815  0.05230418  0.88359862    -0.06540
Cl771      Cl  0.46382556  0.98305562  0.92896761    -0.49540
C772        C  0.49215468  0.89641855  0.84804674     0.42990
H773        H  0.52601515  0.05854705  0.55126977     0.07200
N774        N  0.54220292  0.05004726  0.83464709    -0.46250
C775        C  0.39735365  0.26440519  0.53946763    -0.20920
C776        C  0.41521261  0.26861255  0.57522921    -0.08960
C777        C  0.43777103  0.30493124  0.59027105     0.29890
C778        C  0.44208744  0.33615991  0.57005751    -0.20920
C779        C  0.42421670  0.33206205  0.53436159    -0.08980
C780        C  0.40175311  0.29574959  0.51914306     0.29900
F781        F  0.38421102  0.29040110  0.98455893    -0.19500
H782        H  0.37990103  0.23675935  0.52724755     0.18270
H783        H  0.45970545  0.36359512  0.58252104     0.18270
F784        F  0.45683296  0.31048102  0.62391608    -0.19490
C785        C  0.40417166  0.08646583  0.55986996    -0.20920
C786        C  0.43205633  0.09804592  0.53142581    -0.08960
C787        C  0.45557862  0.13637939  0.52412912     0.29890
C788        C  0.45114452  0.16292056  0.54514665    -0.20920
C789        C  0.42317187  0.15152031  0.57371469    -0.08980
C790        C  0.39962761  0.11293668  0.58089318     0.29900
F791        F  0.37153014  0.10082102  0.60734971    -0.19500
H792        H  0.38565576  0.05686461  0.56546210     0.18270
H793        H  0.46973685  0.19244403  0.53929666     0.18270
F794        F  0.48282502  0.14806779  0.49675858    -0.19490
C795        C  0.39520555  0.28391297  0.77600065    -0.20920
C796        C  0.41956850  0.27016981  0.78441369    -0.08960
C797        C  0.44702795  0.28803258  0.81330129     0.29890
C798        C  0.44952714  0.31857856  0.83362942    -0.20920
C799        C  0.42499061  0.33191723  0.82529287    -0.08980
C800        C  0.39783465  0.31452992  0.79631357     0.29900
F801        F  0.37359384  0.32688095  0.78807413    -0.19500
H802        H  0.37376791  0.27055320  0.75403974     0.18270
H803        H  0.47072326  0.33195067  0.85581683     0.18270
F804        F  0.47200932  0.27655105  0.82123923    -0.19490
C805        C  0.45268751  0.14870408  0.77864814    -0.20920
C806        C  0.41897216  0.14893417  0.78352235    -0.08960
C807        C  0.39137620  0.12289795  0.80850220     0.29890
C808        C  0.39755492  0.09684408  0.82829679    -0.20920
C809        C  0.43125375  0.09636273  0.82328697    -0.08980
C810        C  0.45895877  0.12277524  0.79844971     0.29900
F811        F  0.49249811  0.12435924  0.79412130    -0.19500
H812        H  0.47439121  0.16904439  0.75980464     0.18270
H813        H  0.37573735  0.07667524  0.84714405     0.18270
F814        F  0.35831688  0.12229104  0.81314713    -0.19490
C815        C  0.59924701  0.50078539  0.78361824    -0.20920
C816        C  0.60177634  0.51385502  0.82152151    -0.08960
C817        C  0.63742590  0.53449200  0.83878992     0.29890
C818        C  0.66970195  0.54163893  0.81839127    -0.20920
C819        C  0.66716231  0.52795165  0.78062325    -0.08980
C820        C  0.63137299  0.50749746  0.76339142     0.29900
F821        F  0.62696174  0.49232510  0.72760009    -0.19500
H822        H  0.57230948  0.48494070  0.76950400     0.18270
H823        H  0.69670675  0.55764372  0.83239847     0.18270
F824        F  0.64119659  0.54721155  0.87565456    -0.19490
C825        C  0.82168034  0.53624177  0.76918685    -0.20920
C826        C  0.78449576  0.51874928  0.78309812    -0.08960
C827        C  0.77606325  0.49822460  0.81803204     0.29890
C828        C  0.80442713  0.49677684  0.83894543    -0.20920
C829        C  0.84121348  0.51430682  0.82478780    -0.08980
C830        C  0.84962779  0.53357851  0.78949079     0.29900
F831        F  0.88514111  0.55073709  0.77522812    -0.19500
H832        H  0.82938979  0.55259908  0.74279786     0.18270
H833        H  0.79751450  0.48124450  0.86586676     0.18270
F834        F  0.74035245  0.47850979  0.83152560    -0.19490
C835        C  0.63193487  0.48406518  0.57123444    -0.20920
C836        C  0.66466360  0.51926485  0.57343237    -0.08960
C837        C  0.66596977  0.55020894  0.55493127     0.29890
C838        C  0.63513473  0.54576975  0.53372513    -0.20920
C839        C  0.60239129  0.51056356  0.53127418    -0.08980
C840        C  0.60084551  0.47969048  0.55036128     0.29900
F841        F  0.56983480  0.44517648  0.54770033    -0.19500
H842        H  0.63069270  0.45998037  0.58534579     0.18270
H843        H  0.63663203  0.56999305  0.51966566     0.18270
F844        F  0.69692402  0.58474737  0.55781988    -0.19490
C845        C  0.83241803  0.54104153  0.51958258    -0.20920
C846        C  0.84392902  0.51659985  0.53455811    -0.08960
C847        C  0.82765203  0.49739464  0.56930877     0.29890
C848        C  0.80093694  0.50284530  0.58846173    -0.20920
C849        C  0.78953855  0.52726327  0.57358951    -0.08980
C850        C  0.80544024  0.54632871  0.53879904     0.29900
F851        F  0.79550748  0.57058744  0.52380716    -0.19500
H852        H  0.84444061  0.55628296  0.99298262     0.18270
H853        H  0.78853891  0.48728885  0.61483413     0.18270
F854        F  0.83699121  0.47305387  0.58506046    -0.19490
C855        C  0.62550322  0.08746148  0.56255809    -0.20920
C856        C  0.60973107  0.09782816  0.53253036    -0.08960
C857        C  0.62661696  0.13537295  0.52105671     0.29890
C858        C  0.65824950  0.16261886  0.54053299    -0.20920
C859        C  0.67406349  0.15272364  0.57126788    -0.08980
C860        C  0.65768410  0.11455902  0.58161941     0.29900
F861        F  0.67302170  0.10326060  0.60955156    -0.19500
H862        H  0.61298965  0.05829964  0.57103404     0.18270
H863        H  0.66982645  0.19165871  0.53207560     0.18270
F864        F  0.61212844  0.14571945  0.99141251    -0.19490
C865        C  0.80935785  0.33564560  0.53813780    -0.20920
C866        C  0.84495851  0.34000623  0.53170742    -0.08960
C867        C  0.85343236  0.31332134  0.54643163     0.29890
C868        C  0.82640757  0.28249962  0.56730951    -0.20920
C869        C  0.79053970  0.27770437  0.57304418    -0.08980
C870        C  0.78206064  0.30438168  0.55832596     0.29900
F871        F  0.74738975  0.30002816  0.56343463    -0.19500
H872        H  0.80251512  0.35602700  0.52681283     0.18270
H873        H  0.83325212  0.26212145  0.57864784     0.18270
F874        F  0.88797391  0.31741139  0.54104442    -0.19490
C875        C  0.65938258  0.16349320  0.81887922    -0.20920
C876        C  0.66987383  0.15537376  0.78289349    -0.08960
C877        C  0.64941767  0.11824498  0.76876575     0.29890
C878        C  0.61894589  0.09067124  0.78962831    -0.20920
C879        C  0.60927116  0.09901508  0.82556906    -0.08980
C880        C  0.62989799  0.13542871  0.84036948     0.29900
F881        F  0.62097583  0.14401159  0.87523707    -0.19500
H882        H  0.67376730  0.19165212  0.83048859     0.18270
H883        H  0.60351388  0.06241173  0.77823615     0.18270
F884        F  0.65957597  0.10802162  0.73560396    -0.19490
C885        C  0.80767543  0.27162575  0.81694143    -0.20920
C886        C  0.79403617  0.27486697  0.78077503    -0.08960
C887        C  0.80668128  0.31093630  0.76535366     0.29890
C888        C  0.83240276  0.34278146  0.78560499    -0.20920
C889        C  0.84596701  0.33960185  0.82176217    -0.08980
C890        C  0.83326698  0.30359642  0.83737252     0.29900
F891        F  0.84522392  0.29912712  0.87249418    -0.19500
H892        H  0.79844083  0.24427789  0.82950436     0.18270
H893        H  0.84138532  0.36996895  0.77286577     0.18270
F894        F  0.79309181  0.31566314  0.73134499    -0.19490
C895        C  0.24547423  0.40803842  0.79673131    -0.20920
C896        C  0.24662402  0.44092441  0.78409968    -0.08960
C897        C  0.27845542  0.47586698  0.79182750     0.29890
C898        C  0.30894672  0.47781845  0.81174321    -0.20920
C899        C  0.30760435  0.44501041  0.82501645    -0.08980
C900        C  0.27569347  0.41001614  0.81733329     0.29900
F901        F  0.27422929  0.37778106  0.82878036    -0.19500
H902        H  0.22115104  0.38093954  0.79071992     0.18270
H903        H  0.33330200  0.50496894  0.81752896     0.18270
F904        F  0.27982698  0.50804038  0.78028577    -0.19490
C905        C  0.06497991  0.43528590  0.79047849    -0.20920
C906        C  0.07449817  0.45791625  0.82342518    -0.08960
C907        C  0.11139516  0.47563414  0.83731341     0.29890
C908        C  0.13885669  0.47158286  0.81763540    -0.20920
C909        C  0.12967162  0.44912993  0.78425607    -0.08980
C910        C  0.09212291  0.43042468  0.77125841     0.29900
F911        F  0.08137529  0.40669585  0.74060184    -0.19500
H912        H  0.03632634  0.42091434  0.77999629     0.18270
H913        H  0.16743723  0.48650175  0.82821248     0.18270
F914        F  0.12094597  0.49737719  0.86947297    -0.19490
C915        C  0.28511869  0.47467901  0.58281435    -0.20920
C916        C  0.24876380  0.44627794  0.57335648    -0.08960
C917        C  0.24390639  0.42112738  0.54341156     0.29890
C918        C  0.27513485  0.42413668  0.52388567    -0.20920
C919        C  0.31167159  0.45222842  0.53382352    -0.08980
C920        C  0.31625571  0.47788186  0.56324860     0.29900
F921        F  0.35059225  0.50657273  0.57299659    -0.19500
H922        H  0.28940489  0.49477004  0.60526704     0.18270
H923        H  0.27072603  0.40404669  0.00139427     0.18270
F924        F  0.20911316  0.39296850  0.53387197    -0.19490
C925        C  0.10818015  0.41953880  0.54341411    -0.20920
C926        C  0.12618988  0.44339975  0.57472843    -0.08960
C927        C  0.11640996  0.47052927  0.58474413     0.29890
C928        C  0.08936035  0.47385215  0.56336222    -0.20920
C929        C  0.07156279  0.45026126  0.53164685    -0.08980
C930        C  0.08098395  0.42261683  0.52219025     0.29900
F931        F  0.06369451  0.39790914  0.99303040    -0.19500
H932        H  0.11507928  0.39823540  0.53550466     0.18270
H933        H  0.08271617  0.49531145  0.57133023     0.18270
F934        F  0.13397216  0.49471384  0.61433129    -0.19490
C935        C  0.11452623  0.69969063  0.53867014    -0.20920
C936        C  0.12726503  0.69542054  0.57501550    -0.08960
C937        C  0.11195702  0.65905156  0.59065892     0.29890
C938        C  0.08485952  0.62800618  0.57040469    -0.20830
C939        C  0.07241369  0.63213419  0.53395109    -0.08980
C940        C  0.08744566  0.66843217  0.51824196     0.29900
F941        F  0.07651721  0.67379540  0.98293060    -0.19500
H942        H  0.12566888  0.72726441  0.52591837     0.18270
H943        H  0.07400078  0.60061045  0.58338977     0.18270
F944        F  0.12431477  0.65307079  0.62485105    -0.19490
C945        C  0.29752241  0.83054319  0.51659564    -0.20920
C946        C  0.31862609  0.86650623  0.53233121    -0.08960
C947        C  0.30899485  0.87415040  0.56870207     0.29890
C948        C  0.27778170  0.84638136  0.58850390    -0.20920
C949        C  0.25627861  0.80996812  0.57308148    -0.08980
C950        C  0.26716721  0.80220691  0.53702869     0.29900
F951        F  0.24945088  0.76712907  0.52187746    -0.19500
H952        H  0.30508858  0.82420092  0.98874204     0.18270
H953        H  0.27011394  0.85372768  0.61571939     0.18270
F954        F  0.32896746  0.90889518  0.58442847    -0.19490
C955        C  0.09666028  0.67330708  0.76963170    -0.20920
C956        C  0.13377863  0.69148069  0.78365561    -0.08960
C957        C  0.14127928  0.67848584  0.81846873     0.29890
C958        C  0.11212131  0.64905214  0.83906716    -0.20920
C959        C  0.07541491  0.63122104  0.82474474    -0.08980
C960        C  0.06785133  0.64314953  0.78967631     0.29900
F961        F  0.03240160  0.62622798  0.77534736    -0.19500
H962        H  0.08973379  0.68278159  0.74332294     0.18270
H963        H  0.11831951  0.63959766  0.86584798     0.18270
F964        F  0.17680940  0.69323516  0.83209040    -0.19490
C965        C  0.28238265  0.85718798  0.83732506    -0.20920
C966        C  0.31810165  0.87035837  0.82085041    -0.08960
C967        C  0.32056623  0.85699008  0.78411108     0.29890
C968        C  0.28822761  0.83048586  0.76509419    -0.20920
C969        C  0.25254796  0.81688877  0.78169495    -0.08980
C970        C  0.24989240  0.83088798  0.81799363     0.29900
F971        F  0.21600668  0.81977327  0.83456588    -0.19500
H972        H  0.27951149  0.86729804  0.86531021     0.18270
H973        H  0.29129637  0.81995532  0.73744154     0.18270
F974        F  0.35395512  0.86920998  0.76609922    -0.19490
C975        C  0.46264356  0.61833071  0.79020122    -0.20920
C976        C  0.48446410  0.62279696  0.82310547    -0.08960
C977        C  0.51040427  0.65934909  0.83567108     0.29890
C978        C  0.51432667  0.69055336  0.81545801    -0.20920
C979        C  0.49268409  0.68591280  0.78237560    -0.08980
C980        C  0.46663382  0.64944815  0.77002338     0.29900
F981        F  0.44416411  0.64385066  0.73905171    -0.19500
H982        H  0.44216522  0.59071965  0.77999943     0.18270
H983        H  0.53452357  0.71841542  0.82546602     0.18270
F984        F  0.53218433  0.66508945  0.86726061    -0.19490
C985        C  0.51861875  0.82485625  0.81395974    -0.20920
C986        C  0.49298706  0.80716117  0.78373207    -0.08960
C987        C  0.46711391  0.81893328  0.77493800     0.29890
C988        C  0.46708470  0.84787873  0.79609119    -0.20920
C989        C  0.49270037  0.86558758  0.82643614    -0.08980
C990        C  0.51868715  0.85381168  0.83506116     0.29900
F991        F  0.54490551  0.87065333  0.86307940    -0.19500
H992        H  0.53912088  0.81656488  0.82089132     0.18270
H993        H  0.44670913  0.85624638  0.78887501     0.18270
F994        F  0.44122350  0.80184034  0.74660498    -0.19490
C995        C  0.52040425  0.69042739  0.54930797    -0.20920
C996        C  0.49049263  0.68530950  0.57288059    -0.08960
C997        C  0.45874776  0.64939132  0.57634894     0.29890
C998        C  0.45703273  0.61908968  0.55619391    -0.20920
C999        C  0.48684032  0.62429085  0.53223212    -0.08980
C1000       C  0.51882023  0.66022943  0.52931709     0.29900
F1001       F  0.54916668  0.66606586  0.50833969    -0.19500
H1002       H  0.54532847  0.71783711  0.54691483     0.18270
H1003       H  0.43217470  0.59166901  0.55881883     0.18270
F1004       F  0.42915082  0.64387496  0.59848775    -0.19490
C1005       C  0.47174897  0.81976904  0.58567729    -0.20920
C1006       C  0.49811121  0.80992507  0.57326122    -0.08960
C1007       C  0.52059323  0.82814242  0.54088921     0.29890
C1008       C  0.51701287  0.85623972  0.52186664    -0.20920
C1009       C  0.49084581  0.86644188  0.53462963    -0.08980
C1010       C  0.46787642  0.84744674  0.56661586     0.29900
F1011       F  0.44115341  0.85485072  0.57950673    -0.19500
H1012       H  0.45355377  0.80545893  0.61003162     0.18270
H1013       H  0.53500393  0.87025737  0.99731893     0.18270
F1014       F  0.54655547  0.81944441  0.52826277    -0.19490
loop_ 
_geom_bond_atom_site_label_1 
_geom_bond_atom_site_label_2 
_geom_bond_distance 
_geom_bond_site_symmetry_2 
_ccdc_geom_bond_type 
C1            C2   1.403       .  A
C1            C6   1.398       .  A
C1          C489   1.476       .  S
C2            C3   1.416       .  A
C2            H7   1.078       .  S
C3            C4   1.413       .  A
C3           C12   1.514       .  S
C4            C5   1.404       .  A
C4            H8   1.078       .  S
C5            C6   1.398       .  A
C5          C499   1.480       .  S
C6            H9   1.084       .  S
C10          C11   1.402       .  A
C10          C15   1.398       .  A
C10         C472   1.481       .  S
C11          C12   1.413       .  A
C11          H16   1.078       .  S
C12          C13   1.417       .  A
C13          C14   1.405       .  A
C13          H17   1.077       .  S
C14          C15   1.399       .  A
C14         C479   1.484       .  S
C15          H18   1.084       .  S
C19          C20   1.405       .  A
C19          C24   1.403       .  A
C19         C462   1.488       .  S
C20          C21   1.408       .  A
C20          H25   1.080       .  S
C21          C22   1.412       .  A
C21          C30   1.506       .  S
C22          C23   1.407       .  A
C22          H26   1.080       .  S
C23          C24   1.404       .  A
C23         C449   1.493       .  S
C24          H27   1.080       .  S
C28          C29   1.409       .  A
C28          C33   1.407       .  A
C28         C442   1.498       .  S
C29          C30   1.412       .  A
C29          H34   1.080       .  S
C30          C31   1.408       .  A
C31          C32   1.404       .  A
C31          H35   1.080       .  S
C32          C33   1.404       .  A
C32         C429   1.490       .  S
C33          H36   1.080       .  S
C37          C38   1.399       .  A
C37          C42   1.403       .  A
C37         C419   1.481       .  S
C38          C39   1.398       .  A
C38          H43   1.084       .  S
C39          C40   1.405       .  A
C39         C409   1.481       .  S
C40          C41   1.414       .  A
C40          H44   1.079       .  S
C41          C42   1.416       .  A
C41          C50   1.515       .  S
C42          H45   1.079       .  S
C46          C47   1.401       .  A
C46          C51   1.405       .  A
C46         C402   1.488       .  S
C47          C48   1.396       .  A
C47          H52   1.083       .  S
C48          C49   1.401       .  A
C48         C389   1.473       .  S
C49          C50   1.416       .  A
C49          H53   1.080       .  S
C50          C51   1.415       .  A
C51          H54   1.078       .  S
C55          C56   1.401       .  A
C55          C60   1.400       .  A
C55         C379   1.486       .  S
C56          C57   1.410       .  A
C56          H61   1.078       .  S
C57          C58   1.415       .  A
C57          C66   1.511       .  S
C58          C59   1.409       .  A
C58          H62   1.077       .  S
C59          C60   1.404       .  A
C59         C369   1.496       .  S
C60          H63   1.081       .  S
C64          C65   1.398       .  A
C64          C69   1.395       .  A
C64         C362   1.472       .  S
C65          C66   1.415       .  A
C65          H70   1.079       .  S
C66          C67   1.414       .  A
C67          C68   1.408       .  A
C67          H71   1.076       .  S
C68          C69   1.402       .  A
C68         C352   1.489       .  S
C69          H72   1.084       .  S
C73          C74   1.398       .  A
C73          C78   1.400       .  A
C73         C329   1.473       .  S
C74          C75   1.400       .  A
C74          H79   1.084       .  S
C75          C76   1.405       .  A
C75         C342   1.482       .  S
C76          C77   1.411       .  A
C76          H80   1.080       .  S
C77          C78   1.414       .  A
C77          C84   1.506       .  S
C78          H81   1.080       .  S
C82          C83   1.402       .  A
C82          C87   1.403       .  A
C82         C312   1.490       .  S
C83          C84   1.408       .  A
C83          H88   1.079       .  S
C84          C85   1.414       .  A
C85          C86   1.408       .  A
C85          H89   1.079       .  S
C86          C87   1.405       .  A
C86         C319   1.496       .  S
C87          H90   1.080       .  S
C91          C92   1.396       .  A
C91          C96   1.400       .  A
C91         C299   1.473       .  S
C92          C93   1.400       .  A
C92          H97   1.084       .  S
C93          C94   1.406       .  A
C93         C289   1.486       .  S
C94          C95   1.419       .  A
C94          H98   1.078       .  S
C95          C96   1.414       .  A
C95         C102   1.516       .  S
C96          H99   1.079       .  S
C100        C101   1.405       .  A
C100        C105   1.399       .  A
C100        C282   1.484       .  S
C101        C102   1.417       .  A
C101        H106   1.078       .  S
C102        C103   1.413       .  A
C103        C104   1.404       .  A
C103        H107   1.078       .  S
C104        C105   1.399       .  A
C104        C269   1.485       .  S
C105        H108   1.083       .  S
C109        C146   1.463       .  S
C109        C469   1.480       .  S
C109        N127   1.350       .  A
N110        N127   1.324       .  A
N110        N132   1.319       .  A
N110       Co147   2.082       .  S
C111        C149   1.456       .  S
C111        H156   1.081       .  S
C111        N136   1.341       .  A
H112        C153   1.081       .  S
C113        C117   1.461       .  S
C113        H142   1.080       .  S
C113        N644   1.336       .  A
Co114       N132   2.081       .  S
Co114       N122   2.090       .  S
Co114       N154   2.090       .  S
Co114       N130   2.091       .  S
Co114      Cl158   2.449       .  S
N115        C153   1.340       .  A
N115        N122   1.320       .  A
N115       Co116   2.080       .  S
Co116       N119   2.094       .  S
Co116       N136   2.086       .  S
Co116       N123   2.081       .  S
Co116      Cl158   2.455       .  S
C117        C412   1.483       .  S
C117        N662   1.354   1_554  A
N118        N125   1.319       .  A
N118        N655   1.326       .  A
N118       Co658   2.092       .  S
N119        N137   1.320       .  A
N119        N155   1.326       .  A
N120        C149   1.349       .  A
N120        N130   1.326       .  A
H121        C146   1.081       .  S
N122        N143   1.326       .  A
N123        N141   1.319       .  A
N123        N128   1.324       .  A
C124        C152   1.463       .  S
C124        C272   1.481       .  S
C124        N635   1.350   1_554  A
N125        C140   1.337       .  A
N125       Co147   2.070       .  S
C126        C129   1.466       .  S
C126        H160   1.081       .  S
C126        N154   1.341       .  A
N128        C631   1.350       .  A
C129        C309   1.479       .  S
C129        N150   1.347       .  A
N130        N136   1.321       .  A
N131        C157   1.339       .  A
N131        N133   1.320       .  A
N131       Co147   2.079       .  S
N132        C146   1.339       .  A
N133        N668   1.326       .  A
N133       Co658   2.088       .  S
H134        C157   1.082       .  S
H135        C152   1.081       .  S
N137        C620   1.336       .  A
N137       Co658   2.076       .  S
N138        N150   1.322       .  A
N138        N154   1.319       .  A
N138       Co147   2.071       .  S
C139        C153   1.457       .  S
C139        C392   1.472       .  S
C139        N143   1.350       .  A
C140        C666   1.458       .  S
C140        H144   1.081       .  S
N141        C659   1.339       .  A
N141       Co658   2.081       .  S
C145        C332   1.472       .  S
C145        C664   1.457   1_554  S
C145        N161   1.351       .  A
Co147      Cl158   2.450       .  S
N148        C159   1.352       .  A
N148        N625   1.326   1_554  A
C149        C292   1.468       .  S
Co151       N625   2.092       .  S
Co151       N640   2.088       .  S
Co151       N644   2.076   1_556  S
Co151       N648   2.081   1_556  S
Co151      Cl665   2.448       .  S
C152        N648   1.339       .  A
N155        C624   1.354       .  A
C157        C652   1.457       .  S
Cl158      Co658   2.448       .  S
C159        C492   1.476       .  S
C159        C647   1.458   1_554  S
N161        N640   1.326   1_554  A
C162        C199   1.464       .  S
C162        C432   1.483       .  S
C162        N687   1.351   1_554  A
N163        N180   1.325   1_655  A
N163        N185   1.320       .  A
N163       Co200   2.088       .  S
C164        C709   1.456       .  S
C164        H209   1.082       .  S
C164        N189   1.339       .  A
H165        C206   1.080       .  S
C166        C170   1.457       .  S
C166        H195   1.081       .  S
C166        N190   1.341   1_455  A
Co167       N692   2.084       .  S
Co167       N682   2.096       .  S
Co167       N714   2.081       .  S
Co167       N690   2.088       .  S
Co167      Cl718   2.452       .  S
N168        C206   1.335   1_655  A
N168        N175   1.318       .  A
N168       Co169   2.068       .  S
Co169       N172   2.081       .  S
Co169       N189   2.080       .  S
Co169       N176   2.075       .  S
Co169      Cl211   2.445       .  S
C170        C399   1.464       .  S
C170        N208   1.347       .  A
N171        N178   1.321       .  A
N171        N201   1.324   1_655  A
N171       Co204   2.082       .  S
N172        N190   1.320       .  A
N172        N208   1.324   1_655  A
N173        C202   1.349       .  A
N173        N690   1.326   1_554  A
H174        C199   1.081       .  S
N175        N703   1.327   1_655  A
N175       Co674   2.096       .  S
N176        N194   1.319       .  A
N176        N181   1.323       .  A
C177        C205   1.465       .  S
C177        C382   1.479       .  S
C177        N181   1.348       .  A
N178        C193   1.342   1_655  A
N178       Co200   2.088       .  S
C179        C182   1.465       .  S
C179        H213   1.079       .  S
C179        N714   1.338   1_554  A
N180        C669   1.351       .  A
C182        C339   1.485       .  S
C182        N710   1.352   1_554  A
N183        N189   1.320       .  A
N183        N680   1.326       .  A
N183       Co674   2.088       .  S
N184        C210   1.342       .  A
N184        N186   1.321       .  A
N184       Co200   2.091       .  S
N185        C706   1.339   1_655  A
N185       Co674   2.084       .  S
N186        N214   1.325       .  A
N186       Co204   2.082       .  S
H187        C210   1.082       .  S
H188        C205   1.081       .  S
N190       Co204   2.084       .  S
N191        N203   1.325       .  A
N191        N207   1.319       .  A
N191       Co200   2.084       .  S
C192        C422   1.484       .  S
C192        C713   1.460   1_554  S
C192        N196   1.356       .  A
C193        C212   1.457       .  S
C193        H197   1.082       .  S
N194        C205   1.340       .  A
N194       Co204   2.083       .  S
N196        N682   1.327   1_454  A
C198        C210   1.458       .  S
C198        C322   1.469       .  S
C198        N214   1.348       .  A
C199        N692   1.339   1_454  A
Co200      Cl211   2.448       .  S
N201        C212   1.348       .  A
C202        C359   1.467       .  S
C202        C671   1.456   1_554  S
N203        C689   1.352       .  A
Co204      Cl211   2.458       .  S
C206        C699   1.460       .  S
N207        C686   1.338       .  A
N207       Co674   2.081       .  S
Cl211      Co674   2.452       .  S
C212        C452   1.467       .  S
C215        C252   1.463       .  S
C215        C502   1.484       .  S
C215        N740   1.353   1_554  A
N216        N233   1.325       .  A
N216        N238   1.319       .  A
N216       Co253   2.089       .  S
C217        C762   1.456       .  S
C217        H262   1.081       .  S
C217        N242   1.341       .  A
H218        C259   1.081       .  S
C219        C223   1.465       .  S
C219        H248   1.079       .  S
C219        N243   1.338       .  A
Co220       N745   2.077   1_556  S
Co220       N735   2.087       .  S
Co220       N767   2.086   1_566  S
Co220       N743   2.081   1_565  S
Co220      Cl771   2.454       .  S
N221        C259   1.341       .  A
N221        N228   1.320       .  A
N221       Co222   2.084       .  S
Co222       N225   2.083       .  S
Co222       N242   2.088   1_565  S
Co222       N229   2.080   1_565  S
Co222      Cl264   2.449       .  S
C223        C459   1.484       .  S
C223        N261   1.352       .  A
N224        N231   1.319       .  A
N224        N254   1.325       .  A
N224       Co257   2.087       .  S
N225        N243   1.318       .  A
N225        N261   1.324       .  A
N226        C255   1.348       .  A
N226        N743   1.325   1_554  A
H227        C252   1.079       .  S
N228        N756   1.325       .  A
N228       Co727   2.087       .  S
N229        N247   1.320       .  A
N229        N234   1.323       .  A
C230        C258   1.463       .  S
C230        C302   1.477       .  S
C230        N234   1.349       .  A
N231        C246   1.339       .  A
N231       Co253   2.081       .  S
C232        C235   1.457       .  S
C232        H266   1.081       .  S
C232        N767   1.341       .  A
N233        C722   1.353       .  A
C235        C349   1.462       .  S
C235        N763   1.345   1_554  A
N236        N242   1.320       .  A
N236        N733   1.325       .  A
N236       Co727   2.081   1_545  S
N237        C263   1.342       .  A
N237        N239   1.320       .  A
N237       Co253   2.086   1_545  S
N238        C759   1.336       .  A
N238       Co727   2.077       .  S
N239        N267   1.324       .  A
N239       Co257   2.082   1_545  S
H240        C263   1.081       .  S
H241        C258   1.081       .  S
N243       Co257   2.079       .  S
N244        N256   1.323       .  A
N244        N260   1.321       .  A
N244       Co253   2.077   1_545  S
C245        C439   1.469       .  S
C245        C766   1.457   1_554  S
C245        N249   1.349       .  A
C246        C265   1.464       .  S
C246        H250   1.080       .  S
N247        C258   1.341       .  A
N247       Co257   2.089   1_545  S
N249        N735   1.325   1_554  A
C251        C263   1.457       .  S
C251        C372   1.467       .  S
C251        N267   1.348       .  A
C252        N745   1.336       .  A
Co253      Cl264   2.449       .  S
N254        C265   1.352       .  A
C255        C279   1.466       .  S
C255        C724   1.456   1_554  S
N256        C742   1.345       .  A
Co257      Cl264   2.452       .  S
C259        C752   1.457       .  S
N260        C739   1.341       .  A
N260       Co727   2.086   1_545  S
Cl264      Co727   2.454       .  S
C265        C482   1.483       .  S
C268        C269   1.405       .  A
C268        C273   1.399       .  A
C268        H275   1.083       .  S
C269        C270   1.408       .  A
C270        C271   1.395       .  A
C270        F277   1.358       .  S
C271        C272   1.404       .  A
C271        H276   1.081       .  S
C272        C273   1.409       .  A
C273        F781   1.357   1_554  S
F274        C780   1.357       .  S
C278        C279   1.401       .  A
C278        C283   1.399       .  A
C278        H285   1.084       .  S
C279        C280   1.401       .  A
C280        C281   1.399       .  A
C280        F287   1.357   1_554  S
C281        C282   1.406       .  A
C281        H286   1.083       .  S
C282        C283   1.409       .  A
C283        F284   1.358       .  S
C288        C289   1.406       .  A
C288        C293   1.400       .  A
C288        H295   1.083       .  S
C289        C290   1.409       .  A
C290        C291   1.399       .  A
C290        F297   1.357       .  S
C291        C292   1.400       .  A
C291        H296   1.083       .  S
C292        C293   1.403       .  A
C293        F294   1.358       .  S
C298        C299   1.402       .  A
C298        C303   1.397       .  A
C298        H305   1.083       .  S
C299        C300   1.402       .  A
C300        C301   1.399       .  A
C300        F307   1.357       .  S
C301        C302   1.407       .  A
C301        H306   1.083       .  S
C302        C303   1.406       .  A
C303        F304   1.357       .  S
C308        C309   1.401       .  A
C308        C313   1.395       .  A
C308        H315   1.082       .  S
C309        C310   1.409       .  A
C310        C311   1.398       .  A
C310        F317   1.358       .  S
C311        C312   1.406       .  A
C311        H316   1.083       .  S
C312        C313   1.412       .  A
C313        F314   1.357       .  S
C318        C319   1.410       .  A
C318        C323   1.398       .  A
C318        H325   1.083       .  S
C319        C320   1.414       .  A
C320        C321   1.400       .  A
C320        F327   1.357       .  S
C321        C322   1.399       .  A
C321        H326   1.083       .  S
C322        C323   1.401       .  A
C323        F324   1.358       .  S
C328        C329   1.403       .  A
C328        C333   1.400       .  A
C328        H335   1.083       .  S
C329        C330   1.403       .  A
C330        C331   1.397       .  A
C330        F337   1.358       .  S
C331        C332   1.404       .  A
C331        H336   1.083       .  S
C332        C333   1.405       .  A
C333        F334   1.357       .  S
C338        C339   1.408       .  A
C338        C343   1.401       .  A
C338        H852   1.083   1_554  S
C339        C340   1.409       .  A
C340        C341   1.394       .  A
C340        F347   1.355       .  S
C341        C342   1.403       .  A
C341        H346   1.084       .  S
C342        C343   1.406       .  A
C343        F344   1.357       .  S
H345        C845   1.083       .  S
C348        C349   1.400       .  A
C348        C353   1.399       .  A
C348        H355   1.084       .  S
C349        C350   1.398       .  A
C350        C351   1.396       .  A
C350        F864   1.357   1_554  S
C351        C352   1.409       .  A
C351        H356   1.083       .  S
C352        C353   1.411       .  A
C353        F354   1.357       .  S
F357        C857   1.357       .  S
C358        C359   1.401       .  A
C358        C363   1.399       .  A
C358        H365   1.083       .  S
C359        C360   1.404       .  A
C360        C361   1.398       .  A
C360        F367   1.358       .  S
C361        C362   1.402       .  A
C361        H366   1.083       .  S
C362        C363   1.404       .  A
C363        F364   1.357       .  S
C368        C369   1.411       .  A
C368        C373   1.398       .  A
C368        H375   1.082       .  S
C369        C370   1.414       .  A
C370        C371   1.398       .  A
C370        F377   1.357       .  S
C371        C372   1.399       .  A
C371        H376   1.084       .  S
C372        C373   1.400       .  A
C373        F374   1.357       .  S
C378        C379   1.405       .  A
C378        C383   1.399       .  A
C378        H385   1.083       .  S
C379        C380   1.410       .  A
C380        C381   1.394       .  A
C380        F387   1.358       .  S
C381        C382   1.402       .  A
C381        H386   1.081       .  S
C382        C383   1.410       .  A
C383        F384   1.357       .  S
C388        C389   1.401       .  A
C388        C393   1.400       .  A
C388        H395   1.083       .  S
C389        C390   1.405       .  A
C390        C391   1.398       .  A
C390        F397   1.358       .  S
C391        C392   1.402       .  A
C391        H396   1.083       .  S
C392        C393   1.407       .  A
C393        F394   1.357       .  S
C398        C399   1.399       .  A
C398        C403   1.397       .  A
C398        H405   1.084       .  S
C399        C400   1.400       .  A
C400        C401   1.398       .  A
C400        F407   1.357       .  S
C401        C402   1.408       .  A
C401        H406   1.083       .  S
C402        C403   1.412       .  A
C403        F404   1.358       .  S
C408        C409   1.401       .  A
C408        C413   1.395       .  A
C408        H415   1.083       .  S
C409        C410   1.407       .  A
C410        C411   1.401       .  A
C410        F417   1.358       .  S
C411        C412   1.406       .  A
C411        H923   1.083       .  S
C412        C413   1.410       .  A
C413        F414   1.355       .  S
H416        C918   1.083       .  S
C418        C419   1.400       .  A
C418        C423   1.397       .  A
C418        H425   1.084       .  S
C419        C420   1.407       .  A
C420        C421   1.399       .  A
C420        F427   1.358       .  S
C421        C422   1.405       .  A
C421        H426   1.083       .  S
C422        C423   1.412       .  A
C423        F931   1.355   1_554  S
F424        C930   1.355       .  S
C428        C429   1.407       .  A
C428        C433   1.402       .  A
C428        H435   1.083       .  S
C429        C430   1.410       .  A
C430        C431   1.394       .  A
C430        F437   1.358       .  S
C431        C432   1.403       .  A
C431        H436   1.081       .  S
C432        C433   1.409       .  A
C433        F941   1.357   1_554  S
F434        C940   1.357       .  S
C438        C439   1.399       .  A
C438        C443   1.400       .  A
C438        H952   1.083   1_554  S
C439        C440   1.401       .  A
C440        C441   1.398       .  A
C440        F447   1.358       .  S
C441        C442   1.411       .  A
C441        H446   1.083       .  S
C442        C443   1.414       .  A
C443        F444   1.357       .  S
H445        C945   1.083       .  S
C448        C449   1.409       .  A
C448        C453   1.397       .  A
C448        H455   1.083       .  S
C449        C450   1.413       .  A
C450        C451   1.400       .  A
C450        F457   1.357       .  S
C451        C452   1.399       .  A
C451        H456   1.083       .  S
C452        C453   1.401       .  A
C453        F454   1.358       .  S
C458        C459   1.407       .  A
C458        C463   1.400       .  A
C458        H465   1.083       .  S
C459        C460   1.408       .  A
C460        C461   1.394       .  A
C460        F467   1.355       .  S
C461        C462   1.405       .  A
C461        H466   1.083       .  S
C462        C463   1.408       .  A
C463        F464   1.357       .  S
C468        C469   1.404       .  A
C468        C473   1.395       .  A
C468        H475   1.081       .  S
C469        C470   1.410       .  A
C470        C471   1.399       .  A
C470        F477   1.357       .  S
C471        C472   1.404       .  A
C471        H476   1.083       .  S
C472        C473   1.406       .  A
C473        F474   1.358       .  S
C478        C479   1.403       .  A
C478        C483   1.397       .  A
C478        H485   1.084       .  S
C479        C480   1.406       .  A
C480        C481   1.399       .  A
C480        F487   1.357       .  S
C481        C482   1.406       .  A
C481        H486   1.083       .  S
C482        C483   1.410       .  A
C483        F484   1.355       .  S
C488        C489   1.401       .  A
C488        C493   1.396       .  A
C488        H495   1.084       .  S
C489        C490   1.405       .  A
C490        C491   1.400       .  A
C490        F497   1.357       .  S
C491        C492   1.404       .  A
C491        H496   1.083       .  S
C492        C493   1.408       .  A
C493        F494   1.357       .  S
C498        C499   1.402       .  A
C498        C503   1.393       .  A
C498        H505   1.084       .  S
C499        C500   1.405       .  A
C500        C501   1.401       .  A
C500        F507   1.357       .  S
C501        C502   1.408       .  A
C501       H1013   1.083   1_554  S
C502        C503   1.409       .  A
C503        F504   1.355       .  S
H506       C1008   1.083       .  S
C508        C509   1.403       .  A
C508        C513   1.398       .  A
C508        C996   1.476       .  S
C509        C510   1.416       .  A
C509        H514   1.078       .  S
C510        C511   1.413       .  A
C510        C519   1.514       .  S
C511        C512   1.404       .  A
C511        H515   1.078       .  S
C512        C513   1.398       .  A
C512       C1006   1.480       .  S
C513        H516   1.084       .  S
C517        C518   1.402       .  A
C517        C522   1.398       .  A
C517        C979   1.481       .  S
C518        C519   1.413       .  A
C518        H523   1.078       .  S
C519        C520   1.417       .  A
C520        C521   1.405       .  A
C520        H524   1.077       .  S
C521        C522   1.399       .  A
C521        C986   1.484       .  S
C522        H525   1.084       .  S
C526        C527   1.405       .  A
C526        C531   1.403       .  A
C526        C969   1.488       .  S
C527        C528   1.408       .  A
C527        H532   1.080       .  S
C528        C529   1.412       .  A
C528        C537   1.506       .  S
C529        C530   1.407       .  A
C529        H533   1.080       .  S
C530        C531   1.404       .  A
C530        C956   1.493       .  S
C531        H534   1.080       .  S
C535        C536   1.409       .  A
C535        C540   1.407       .  A
C535        C949   1.498       .  S
C536        C537   1.412       .  A
C536        H541   1.080       .  S
C537        C538   1.408       .  A
C538        C539   1.404       .  A
C538        H542   1.080       .  S
C539        C540   1.404       .  A
C539        C936   1.490       .  S
C540        H543   1.080       .  S
C544        C545   1.399       .  A
C544        C549   1.403       .  A
C544        C926   1.481       .  S
C545        C546   1.398       .  A
C545        H550   1.084       .  S
C546        C547   1.405       .  A
C546        C916   1.481       .  S
C547        C548   1.414       .  A
C547        H551   1.079       .  S
C548        C549   1.416       .  A
C548        C557   1.515       .  S
C549        H552   1.079       .  S
C553        C554   1.401       .  A
C553        C558   1.405       .  A
C553        C909   1.488       .  S
C554        C555   1.396       .  A
C554        H559   1.083       .  S
C555        C556   1.401       .  A
C555        C896   1.473       .  S
C556        C557   1.416       .  A
C556        H560   1.080       .  S
C557        C558   1.415       .  A
C558        H561   1.078       .  S
C562        C563   1.401       .  A
C562        C567   1.400       .  A
C562        C886   1.486       .  S
C563        C564   1.410       .  A
C563        H568   1.078       .  S
C564        C565   1.415       .  A
C564        C573   1.511       .  S
C565        C566   1.409       .  A
C565        H569   1.077       .  S
C566        C567   1.404       .  A
C566        C876   1.496       .  S
C567        H570   1.081       .  S
C571        C572   1.398       .  A
C571        C576   1.395       .  A
C571        C869   1.472       .  S
C572        C573   1.415       .  A
C572        H577   1.079       .  S
C573        C574   1.414       .  A
C574        C575   1.408       .  A
C574        H578   1.076       .  S
C575        C576   1.402       .  A
C575        C859   1.489       .  S
C576        H579   1.084       .  S
C580        C581   1.398       .  A
C580        C585   1.400       .  A
C580        C836   1.473       .  S
C581        C582   1.400       .  A
C581        H586   1.084       .  S
C582        C583   1.405       .  A
C582        C849   1.482       .  S
C583        C584   1.411       .  A
C583        H587   1.080       .  S
C584        C585   1.414       .  A
C584        C591   1.506       .  S
C585        H588   1.080       .  S
C589        C590   1.402       .  A
C589        C594   1.403       .  A
C589        C819   1.490       .  S
C590        C591   1.408       .  A
C590        H595   1.079       .  S
C591        C592   1.414       .  A
C592        C593   1.408       .  A
C592        H596   1.079       .  S
C593        C594   1.405       .  A
C593        C826   1.496       .  S
C594        H597   1.080       .  S
C598        C599   1.396       .  A
C598        C603   1.400       .  A
C598        C806   1.473       .  S
C599        C600   1.400       .  A
C599        H604   1.084       .  S
C600        C601   1.406       .  A
C600        C796   1.486       .  S
C601        C602   1.419       .  A
C601        H605   1.078       .  S
C602        C603   1.414       .  A
C602        C609   1.516       .  S
C603        H606   1.079       .  S
C607        C608   1.405       .  A
C607        C612   1.399       .  A
C607        C789   1.484       .  S
C608        C609   1.417       .  A
C608        H613   1.078       .  S
C609        C610   1.413       .  A
C610        C611   1.404       .  A
C610        H614   1.078       .  S
C611        C612   1.399       .  A
C611        C776   1.485       .  S
C612        H615   1.083       .  S
C616        C653   1.463       .  S
C616        C976   1.480       .  S
C616        N634   1.350       .  A
N617        N634   1.324       .  A
N617        N639   1.319       .  A
N617       Co654   2.082       .  S
C618        C656   1.456       .  S
C618        H663   1.081       .  S
C618        N643   1.341       .  A
H619        C660   1.081       .  S
C620        C624   1.461       .  S
C620        H649   1.080       .  S
Co621       N639   2.081       .  S
Co621       N629   2.090       .  S
Co621       N661   2.090       .  S
Co621       N637   2.091       .  S
Co621      Cl665   2.449       .  S
N622        C660   1.340       .  A
N622        N629   1.320       .  A
N622       Co623   2.080       .  S
Co623       N626   2.094       .  S
Co623       N643   2.086       .  S
Co623       N630   2.081       .  S
Co623      Cl665   2.455       .  S
C624        C919   1.483       .  S
N625        N632   1.319       .  A
N626        N644   1.320   1_556  A
N626        N662   1.326       .  A
N627        C656   1.349       .  A
N627        N637   1.326       .  A
H628        C653   1.081       .  S
N629        N650   1.326       .  A
N630        N648   1.319   1_556  A
N630        N635   1.324       .  A
C631        C659   1.463       .  S
C631        C779   1.481       .  S
N632        C647   1.337       .  A
N632       Co654   2.070       .  S
C633        C636   1.466       .  S
C633        H667   1.081       .  S
C633        N661   1.341       .  A
C636        C816   1.479       .  S
C636        N657   1.347       .  A
N637        N643   1.321       .  A
N638        C664   1.339       .  A
N638        N640   1.320       .  A
N638       Co654   2.079       .  S
N639        C653   1.339       .  A
H641        C664   1.082       .  S
H642        C659   1.081       .  S
N645        N657   1.322       .  A
N645        N661   1.319       .  A
N645       Co654   2.071       .  S
C646        C660   1.457       .  S
C646        C899   1.472       .  S
C646        N650   1.350       .  A
C647        H651   1.081       .  S
C652        C839   1.472       .  S
C652        N668   1.351       .  A
Co654      Cl665   2.450       .  S
N655        C666   1.352       .  A
C656        C799   1.468       .  S
C666        C999   1.476       .  S
C669        C706   1.464       .  S
C669        C939   1.483       .  S
N670        N687   1.325   1_655  A
N670        N692   1.320       .  A
N670       Co707   2.088       .  S
C671        H716   1.082       .  S
C671        N696   1.339       .  A
H672        C713   1.080       .  S
C673        C677   1.457       .  S
C673        H702   1.081       .  S
C673        N697   1.341   1_455  A
N675        C713   1.335   1_655  A
N675        N682   1.318       .  A
N675       Co676   2.068       .  S
Co676       N679   2.081       .  S
Co676       N696   2.080       .  S
Co676       N683   2.075       .  S
Co676      Cl718   2.445       .  S
C677        C906   1.464       .  S
C677        N715   1.347       .  A
N678        N685   1.321       .  A
N678        N708   1.324   1_655  A
N678       Co711   2.082       .  S
N679        N697   1.320       .  A
N679        N715   1.324   1_655  A
N680        C709   1.349       .  A
H681        C706   1.081       .  S
N683        N701   1.319       .  A
N683        N688   1.323       .  A
C684        C712   1.465       .  S
C684        C889   1.479       .  S
C684        N688   1.348       .  A
N685        C700   1.342   1_655  A
N685       Co707   2.088       .  S
C686        C689   1.465       .  S
C686        H720   1.079       .  S
C689        C846   1.485       .  S
N690        N696   1.320       .  A
N691        C717   1.342       .  A
N691        N693   1.321       .  A
N691       Co707   2.091       .  S
N693        N721   1.325       .  A
N693       Co711   2.082       .  S
H694        C717   1.082       .  S
H695        C712   1.081       .  S
N697       Co711   2.084       .  S
N698        N710   1.325       .  A
N698        N714   1.319       .  A
N698       Co707   2.084       .  S
C699        C929   1.484       .  S
C699        N703   1.356       .  A
C700        C719   1.457       .  S
C700        H704   1.082       .  S
N701        C712   1.340       .  A
N701       Co711   2.083       .  S
C705        C717   1.458       .  S
C705        C829   1.469       .  S
C705        N721   1.348       .  A
Co707      Cl718   2.448       .  S
N708        C719   1.348       .  A
C709        C866   1.467       .  S
Co711      Cl718   2.458       .  S
C719        C959   1.467       .  S
C722        C759   1.463       .  S
C722       C1009   1.484       .  S
N723        N740   1.325       .  A
N723        N745   1.319   1_556  A
N723       Co760   2.089       .  S
C724        H769   1.081       .  S
C724        N749   1.341       .  A
H725        C766   1.081       .  S
C726        C730   1.465       .  S
C726        H755   1.079       .  S
C726        N750   1.338       .  A
N728        C766   1.341       .  A
N728        N735   1.320       .  A
N728       Co729   2.084       .  S
Co729       N732   2.083       .  S
Co729       N749   2.088   1_565  S
Co729       N736   2.080   1_565  S
Co729      Cl771   2.449       .  S
C730        C966   1.484       .  S
C730        N768   1.352       .  A
N731        N738   1.319       .  A
N731        N761   1.325       .  A
N731       Co764   2.087       .  S
N732        N750   1.318       .  A
N732        N768   1.324       .  A
N733        C762   1.348       .  A
H734        C759   1.079       .  S
N736        N754   1.320       .  A
N736        N741   1.323       .  A
C737        C765   1.463       .  S
C737        C809   1.477       .  S
C737        N741   1.349       .  A
N738        C753   1.339       .  A
N738       Co760   2.081       .  S
C739        C742   1.457       .  S
C739        H773   1.081       .  S
C742        C856   1.462       .  S
N743        N749   1.320       .  A
N744        C770   1.342       .  A
N744        N746   1.320       .  A
N744       Co760   2.086   1_545  S
N746        N774   1.324       .  A
N746       Co764   2.082   1_545  S
H747        C770   1.081       .  S
H748        C765   1.081       .  S
N750       Co764   2.079       .  S
N751        N763   1.323       .  A
N751        N767   1.321   1_556  A
N751       Co760   2.077   1_545  S
C752        C946   1.469       .  S
C752        N756   1.349       .  A
C753        C772   1.464       .  S
C753        H757   1.080       .  S
N754        C765   1.341       .  A
N754       Co764   2.089   1_545  S
C758        C770   1.457       .  S
C758        C879   1.467       .  S
C758        N774   1.348       .  A
Co760      Cl771   2.449       .  S
N761        C772   1.352       .  A
C762        C786   1.466       .  S
Co764      Cl771   2.452       .  S
C772        C989   1.483       .  S
C775        C776   1.405       .  A
C775        C780   1.399       .  A
C775        H782   1.083       .  S
C776        C777   1.408       .  A
C777        C778   1.395       .  A
C777        F784   1.358       .  S
C778        C779   1.404       .  A
C778        H783   1.081       .  S
C779        C780   1.409       .  A
C785        C786   1.401       .  A
C785        C790   1.399       .  A
C785        H792   1.084       .  S
C786        C787   1.401       .  A
C787        C788   1.399       .  A
C787        F794   1.357       .  S
C788        C789   1.406       .  A
C788        H793   1.083       .  S
C789        C790   1.409       .  A
C790        F791   1.358       .  S
C795        C796   1.406       .  A
C795        C800   1.400       .  A
C795        H802   1.083       .  S
C796        C797   1.409       .  A
C797        C798   1.399       .  A
C797        F804   1.357       .  S
C798        C799   1.400       .  A
C798        H803   1.083       .  S
C799        C800   1.403       .  A
C800        F801   1.358       .  S
C805        C806   1.402       .  A
C805        C810   1.397       .  A
C805        H812   1.083       .  S
C806        C807   1.402       .  A
C807        C808   1.399       .  A
C807        F814   1.357       .  S
C808        C809   1.407       .  A
C808        H813   1.083       .  S
C809        C810   1.406       .  A
C810        F811   1.357       .  S
C815        C816   1.401       .  A
C815        C820   1.395       .  A
C815        H822   1.082       .  S
C816        C817   1.409       .  A
C817        C818   1.398       .  A
C817        F824   1.358       .  S
C818        C819   1.406       .  A
C818        H823   1.083       .  S
C819        C820   1.412       .  A
C820        F821   1.357       .  S
C825        C826   1.410       .  A
C825        C830   1.398       .  A
C825        H832   1.083       .  S
C826        C827   1.414       .  A
C827        C828   1.400       .  A
C827        F834   1.357       .  S
C828        C829   1.399       .  A
C828        H833   1.083       .  S
C829        C830   1.401       .  A
C830        F831   1.358       .  S
C835        C836   1.403       .  A
C835        C840   1.400       .  A
C835        H842   1.083       .  S
C836        C837   1.403       .  A
C837        C838   1.397       .  A
C837        F844   1.358       .  S
C838        C839   1.404       .  A
C838        H843   1.083       .  S
C839        C840   1.405       .  A
C840        F841   1.357       .  S
C845        C846   1.408       .  A
C845        C850   1.401       .  A
C846        C847   1.409       .  A
C847        C848   1.394       .  A
C847        F854   1.355       .  S
C848        C849   1.403       .  A
C848        H853   1.084       .  S
C849        C850   1.406       .  A
C850        F851   1.357       .  S
C855        C856   1.400       .  A
C855        C860   1.399       .  A
C855        H862   1.084       .  S
C856        C857   1.398       .  A
C857        C858   1.396       .  A
C858        C859   1.409       .  A
C858        H863   1.083       .  S
C859        C860   1.411       .  A
C860        F861   1.357       .  S
C865        C866   1.401       .  A
C865        C870   1.399       .  A
C865        H872   1.083       .  S
C866        C867   1.404       .  A
C867        C868   1.398       .  A
C867        F874   1.358       .  S
C868        C869   1.402       .  A
C868        H873   1.083       .  S
C869        C870   1.404       .  A
C870        F871   1.357       .  S
C875        C876   1.411       .  A
C875        C880   1.398       .  A
C875        H882   1.082       .  S
C876        C877   1.414       .  A
C877        C878   1.398       .  A
C877        F884   1.357       .  S
C878        C879   1.399       .  A
C878        H883   1.084       .  S
C879        C880   1.400       .  A
C880        F881   1.357       .  S
C885        C886   1.405       .  A
C885        C890   1.399       .  A
C885        H892   1.083       .  S
C886        C887   1.410       .  A
C887        C888   1.394       .  A
C887        F894   1.358       .  S
C888        C889   1.402       .  A
C888        H893   1.081       .  S
C889        C890   1.410       .  A
C890        F891   1.357       .  S
C895        C896   1.401       .  A
C895        C900   1.400       .  A
C895        H902   1.083       .  S
C896        C897   1.405       .  A
C897        C898   1.398       .  A
C897        F904   1.358       .  S
C898        C899   1.402       .  A
C898        H903   1.083       .  S
C899        C900   1.407       .  A
C900        F901   1.357       .  S
C905        C906   1.399       .  A
C905        C910   1.397       .  A
C905        H912   1.084       .  S
C906        C907   1.400       .  A
C907        C908   1.398       .  A
C907        F914   1.357       .  S
C908        C909   1.408       .  A
C908        H913   1.083       .  S
C909        C910   1.412       .  A
C910        F911   1.358       .  S
C915        C916   1.401       .  A
C915        C920   1.395       .  A
C915        H922   1.083       .  S
C916        C917   1.407       .  A
C917        C918   1.401       .  A
C917        F924   1.358       .  S
C918        C919   1.406       .  A
C919        C920   1.410       .  A
C920        F921   1.355       .  S
C925        C926   1.400       .  A
C925        C930   1.397       .  A
C925        H932   1.084       .  S
C926        C927   1.407       .  A
C927        C928   1.399       .  A
C927        F934   1.358       .  S
C928        C929   1.405       .  A
C928        H933   1.083       .  S
C929        C930   1.412       .  A
C935        C936   1.407       .  A
C935        C940   1.402       .  A
C935        H942   1.083       .  S
C936        C937   1.410       .  A
C937        C938   1.394       .  A
C937        F944   1.358       .  S
C938        C939   1.403       .  A
C938        H943   1.081       .  S
C939        C940   1.409       .  A
C945        C946   1.399       .  A
C945        C950   1.400       .  A
C946        C947   1.401       .  A
C947        C948   1.398       .  A
C947        F954   1.358       .  S
C948        C949   1.411       .  A
C948        H953   1.083       .  S
C949        C950   1.414       .  A
C950        F951   1.357       .  S
C955        C956   1.409       .  A
C955        C960   1.397       .  A
C955        H962   1.083       .  S
C956        C957   1.413       .  A
C957        C958   1.400       .  A
C957        F964   1.357       .  S
C958        C959   1.399       .  A
C958        H963   1.083       .  S
C959        C960   1.401       .  A
C960        F961   1.358       .  S
C965        C966   1.407       .  A
C965        C970   1.400       .  A
C965        H972   1.083       .  S
C966        C967   1.408       .  A
C967        C968   1.394       .  A
C967        F974   1.355       .  S
C968        C969   1.405       .  A
C968        H973   1.083       .  S
C969        C970   1.408       .  A
C970        F971   1.357       .  S
C975        C976   1.404       .  A
C975        C980   1.395       .  A
C975        H982   1.081       .  S
C976        C977   1.410       .  A
C977        C978   1.399       .  A
C977        F984   1.357       .  S
C978        C979   1.404       .  A
C978        H983   1.083       .  S
C979        C980   1.406       .  A
C980        F981   1.358       .  S
C985        C986   1.403       .  A
C985        C990   1.397       .  A
C985        H992   1.084       .  S
C986        C987   1.406       .  A
C987        C988   1.399       .  A
C987        F994   1.357       .  S
C988        C989   1.406       .  A
C988        H993   1.083       .  S
C989        C990   1.410       .  A
C990        F991   1.355       .  S
C995        C996   1.401       .  A
C995       C1000   1.396       .  A
C995       H1002   1.084       .  S
C996        C997   1.405       .  A
C997        C998   1.400       .  A
C997       F1004   1.357       .  S
C998        C999   1.404       .  A
C998       H1003   1.083       .  S
C999       C1000   1.408       .  A
C1000      F1001   1.357       .  S
C1005      C1006   1.402       .  A
C1005      C1010   1.393       .  A
C1005      H1012   1.084       .  S
C1006      C1007   1.405       .  A
C1007      C1008   1.401       .  A
C1007      F1014   1.357       .  S
C1008      C1009   1.408       .  A
C1009      C1010   1.409       .  A
C1010      F1011   1.355       .  S
